files/ojo_caliente/Lines.dss
new line.oho_caliente_ug4303156 bus1=node_el_rito.1.2.3 bus2=node_ug4303156.1.2.3 switch=n length=858.731861176967 units=ft geometry=500-mcm-25kv-jacc:500-mcm-25kv-jacc:3 enabled=true phases=3 
new line.oho_caliente_ug21000121 bus1=node_ocd21000118.1.2.3 bus2=node_ug21000121.1.2.3 switch=n length=497.30261056865 units=ft geometry=#4/0-25kvjac:#4/0-25kvjac:3 enabled=true phases=3 
new line.oho_caliente_ug21000123 bus1=node_ocd21000120.1.2.3 bus2=node_ug21000123.1.2.3 switch=n length=627.56103433879 units=ft geometry=#4/0-25kvjac:#4/0-25kvjac:3 enabled=true phases=3 
new line.oho_caliente_ug21000124 bus1=node_ocd21000122.1.2.3 bus2=node_ug21000124.1.2.3 switch=n length=581.1415489020201 units=ft geometry=#4/0-25kvjac:#4/0-25kvjac:3 enabled=true phases=3 
new line.oho_caliente_oh4301347 bus1=node_63232-63900-cp571127447.1.2.3 bus2=node_oh4301347.1.2.3 switch=n length=335.133222763684 units=ft geometry=#2-acsr-6/1:#2-acsr-6/1:3 enabled=true phases=3 
new line.oho_caliente_oh4301105 bus1=node_oh4301053.3 bus2=node_oh4301105.3 switch=n length=384.43315738893403 units=ft geometry=#4-acsr-7/1:#4-acsr-7/1:1 enabled=true phases=1 
new line.oho_caliente_oh4301124 bus1=node_64044-cp571113943-56704.1.2.3 bus2=node_oh4301124.1.2.3 switch=n length=163.834472868175 units=ft geometry=#1/0-acsr-6/1:#2-acsr-6/1:3 enabled=true phases=3 
new line.oho_caliente_ug4301286 bus1=node_ocd4300153.1 bus2=node_ug4301286.1 switch=n length=43.6827586125436 units=ft geometry=#1/0-25kv-jac:#1/0-25kv-jac:1 enabled=true phases=1 
new line.oho_caliente_ug4307481 bus1=node_ocd4307480.3 bus2=node_ug4307481.3 switch=n length=480.29375365491404 units=ft geometry=#1/0-25kv-jac:#1/0-25kv-jac:1 enabled=true phases=1 
new line.oho_caliente_oh4307470 bus1=node_oh4307466.3 bus2=node_oh4307470.3 switch=n length=253.768068125284 units=ft geometry=#4-acsr-7/1:#4-acsr-7/1:1 enabled=true phases=1 
new line.oho_caliente_oh4307467 bus1=node_ocd4307468.3 bus2=node_oh4307467.3 switch=n length=1012.20214606572 units=ft geometry=#4-acsr-7/1:#4-acsr-7/1:1 enabled=true phases=1 
new line.oho_caliente_ug_3_32_15_3_2 bus1=node_ocd4303060.3 bus2=node_ug_3_32_15_3_2.3 switch=n length=1412.3622599219102 units=ft geometry=#1/0-25kv-jac:#1/0-25kv-jac:1 enabled=true phases=1 
new line.oho_caliente_ug_3_32_15_1_0001 bus1=node_ug_3_32_15_3_0001.3 bus2=node_ug_3_32_15_1_0001.3 switch=n length=552.259297845894 units=ft geometry=#1/0-25kv-jac:#1/0-25kv-jac:1 enabled=true phases=1 
new line.oho_caliente_ug_3_32_15_3_0004 bus1=node_ug_3_32_15_3_0002.3 bus2=node_ug_3_32_15_3_0004.3 switch=n length=242.986846931154 units=ft geometry=#1/0-25kv-jac:#1/0-25kv-jac:1 enabled=true phases=1 
new line.oho_caliente_oh4307435 bus1=node_oh4301470.3 bus2=node_oh4307435.3 switch=n length=545.690653209385 units=ft geometry=#4-acsr-7/1:#4-acsr-7/1:1 enabled=true phases=1 
new line.oho_caliente_oh4301473 bus1=node_oh4301470.3 bus2=node_oh4301473.3 switch=n length=115.532243551467 units=ft geometry=#4-acsr-7/1:#4-acsr-7/1:1 enabled=true phases=1 
new line.oho_caliente_oh4307429 bus1=node_ocd4300203.3 bus2=node_oh4307429.3 switch=n length=538.498860258712 units=ft geometry=#4-acsr-7/1:#4-acsr-7/1:1 enabled=true phases=1 
new line.oho_caliente_oh4303149 bus1=node_oh4303146.3 bus2=node_oh4303149.3 switch=n length=371.12414661391 units=ft geometry=#4-acsr-7/1:#4-acsr-7/1:1 enabled=true phases=1 
new line.oho_caliente_ug4303147 bus1=node_ocd4303056.3 bus2=node_ug4303147.3 switch=n length=469.535947292623 units=ft geometry=#1/0-25kv-jac:#1/0-25kv-jac:1 enabled=true phases=1 
new line.oho_caliente_ug4307353 bus1=node_ocd4307352.3 bus2=node_ug4307353.3 switch=n length=233.85855318975499 units=ft geometry=#1/0-25kv-jac:#1/0-25kv-jac:1 enabled=true phases=1 
new line.oho_caliente_ug4301579 bus1=node_ocd4300174.2 bus2=node_ug4301579.2 switch=n length=89.2883710234727 units=ft geometry=none:none:1 enabled=true phases=1 
new line.oho_caliente_oh4303903 bus1=node_oh4301581.2 bus2=node_oh4303903.2 switch=n length=677.472985734377 units=ft geometry=#4-acsr-7/1:#4-acsr-7/1:1 enabled=true phases=1 
new line.oho_caliente_ug4303904 bus1=node_oh4301581.2 bus2=node_ug4303904.2 switch=n length=303.89547956485 units=ft geometry=#1/0-25kv-jac:#1/0-25kv-jac:1 enabled=true phases=1 
new line.oho_caliente_oh4301248 bus1=node_oh4301247.1.2.3 bus2=node_oh4301248.1.2.3 switch=n length=107.43825482572599 units=ft geometry=#1/0-acsr-6/1:#2-acsr-6/1:3 enabled=true phases=3 
new line.oho_caliente_ug4301249 bus1=node_ocd4300150.3 bus2=node_ug4301249.3 switch=n length=758.86651085683 units=ft geometry=#1/0-25kv-jac:#1/0-25kv-jac:1 enabled=true phases=1 
new line.oho_caliente_ug4301169 bus1=node_ocd4300055.3 bus2=node_ug4301169.3 switch=n length=181.012036340088 units=ft geometry=#1/0-25kv-jac:#1/0-25kv-jac:1 enabled=true phases=1 
new line.oho_caliente_oh4301886 bus1=node_oh4301884.1.2.3 bus2=node_oh4301886.1.2.3 switch=n length=213.03320914822498 units=ft geometry=#2-acsr-6/1:#2-acsr-6/1:3 enabled=true phases=3 
new line.oho_caliente_ug4301885 bus1=node_ocd4302602.1.2.3 bus2=node_ug4301885.1.2.3 switch=n length=167.280359277458 units=ft geometry=#1/0-25kv-jac:#1/0-25kv-jac:3 enabled=true phases=3 
new line.oho_caliente_oh4301926 bus1=node_oh4301915.1.2.3 bus2=node_oh4301926.1.2.3 switch=n length=411.76203710394697 units=ft geometry=#2-acsr-6/1:#2-acsr-6/1:3 enabled=true phases=3 
new line.oho_caliente_ug4301916 bus1=node_ocd4308022.1.2.3 bus2=node_ug4301916.1.2.3 switch=n length=138.659730635872 units=ft geometry=#1/0-25kv-jac:#1/0-25kv-jac:3 enabled=true phases=3 
new line.oho_caliente_ug4301973 bus1=node_ocd4300047.1.2.3 bus2=node_ug4301973.1.2.3 switch=n length=221.47015023212998 units=ft geometry=#1/0-25kv-jac:#1/0-25kv-jac:3 enabled=true phases=3 
new line.oho_caliente_oh4300203 bus1=node_oh4302612.2 bus2=node_oh4300203.2 switch=n length=471.105250766632 units=ft geometry=#4-acsr-7/1:#4-acsr-7/1:1 enabled=true phases=1 
new line.oho_caliente_oh4301574 bus1=node_ocd4303894.3 bus2=node_oh4301574.3 switch=n length=448.559509652889 units=ft geometry=#4-acsr-7/1:#4-acsr-7/1:1 enabled=true phases=1 
new line.oho_caliente_ug4303896 bus1=node_ocd4303895.2 bus2=node_ug4303896.2 switch=n length=237.263371172198 units=ft geometry=#1/0-25kv-jac:#1/0-25kv-jac:1 enabled=true phases=1 
new line.oho_caliente_oh4302611 bus1=node_oh4302609.3 bus2=node_oh4302611.3 switch=n length=1.0 units=ft geometry=#4-acsr-7/1:#4-acsr-7/1:1 enabled=true phases=1 
new line.oho_caliente_oh4302610 bus1=node_oh4302609.1.2.3 bus2=node_oh4302610.1.2.3 switch=n length=85.7131040156077 units=ft geometry=#2-acsr-6/1:#2-acsr-6/1:3 enabled=true phases=3 
new line.oho_caliente_oh4301961 bus1=node_oh4302609.1.2.3 bus2=node_oh4301961.1.2.3 switch=n length=1.0 units=ft geometry=#4-acsr-7/1:#4-acsr-7/1:3 enabled=true phases=3 
new line.oho_caliente_ug4301966 bus1=node_ocd4302743.1.2.3 bus2=node_ug4301966.1.2.3 switch=n length=143.83326040930902 units=ft geometry=#1/0-25kv-jac:#1/0-25kv-jac:3 enabled=true phases=3 
new line.oho_caliente_oh4301934 bus1=node_ocd4302623.3 bus2=node_oh4301934.3 switch=n length=251.01994761376702 units=ft geometry=#4-acsr-7/1:#4-acsr-7/1:1 enabled=true phases=1 
new line.oho_caliente_ug4301555 bus1=node_ocd4302603.1.2.3 bus2=node_ug4301555.1.2.3 switch=n length=147.752821969827 units=ft geometry=#1/0-25kv-jac:#1/0-25kv-jac:3 enabled=true phases=3 
new line.oho_caliente_oh4301036 bus1=node_oh4301033.3 bus2=node_oh4301036.3 switch=n length=289.21915047237997 units=ft geometry=#4-acsr-6/1:#4-acsr-6/1:1 enabled=true phases=1 
new line.oho_caliente_ug4301105 bus1=node_ocd4302594.3 bus2=node_ug4301105.3 switch=n length=169.055996639983 units=ft geometry=#1/0-25kv-jac:#1/0-25kv-jac:1 enabled=true phases=1 
new line.oho_caliente_oh4301121 bus1=node_oh4301111.3 bus2=node_oh4301121.3 switch=n length=142.39994733139602 units=ft geometry=#4-acsr-6/1:#4-acsr-6/1:1 enabled=true phases=1 
new line.oho_caliente_ug4301119 bus1=node_ocd4302595.3 bus2=node_ug4301119.3 switch=n length=228.895665533423 units=ft geometry=none:none:1 enabled=true phases=1 
new line.oho_caliente_ug4301124 bus1=node_ocd4302596.3 bus2=node_ug4301124.3 switch=n length=127.41859558175301 units=ft geometry=#1/0-25kv-jac:#1/0-25kv-jac:1 enabled=true phases=1 
new line.oho_caliente_ug4301154 bus1=node_ocd4307828.3 bus2=node_ug4301154.3 switch=n length=349.46546853730905 units=ft geometry=#1/0-25kv-jac:#1/0-25kv-jac:1 enabled=true phases=1 
new line.oho_caliente_oh4301514 bus1=node_oh4301505.1 bus2=node_oh4301514.1 switch=n length=294.572483609753 units=ft geometry=#4-acsr-7/1:#4-acsr-7/1:1 enabled=true phases=1 
new line.oho_caliente_ug4301524 bus1=node_ocd4303004.1 bus2=node_ug4301524.1 switch=n length=1111.25168242822 units=ft geometry=#1/0-25kv-jac:#1/0-25kv-jac:1 enabled=true phases=1 
new line.oho_caliente_oh3610020 bus1=node_carson.1.2.3 bus2=node_oh3610020.1.2.3 switch=n length=354.89615092070295 units=ft geometry=500-mcm-25kv-jacc:500-mcm-25kv-jacc:3 enabled=true phases=3 
new line.oho_caliente_oh3540068 bus1=node_53350-104069-153355.1.2.3 bus2=node_oh3540068.1.2.3 switch=n length=235.623086305145 units=ft geometry=4a-cwc:4a-cwc:3 enabled=true phases=3 
new line.oho_caliente_oh3570075 bus1=node_71332.3 bus2=node_oh3570075.3 switch=n length=247.058586169443 units=ft geometry=#4/0-acsr-6/1:#4/0-acsr-6/1:1 enabled=true phases=1 
new line.oho_caliente_oh3570056 bus1=node_oh3570055.1.2.3 bus2=node_oh3570056.1.2.3 switch=n length=466.384417942854 units=ft geometry=4a-cwc:4a-cwc:3 enabled=true phases=3 
new line.oho_caliente_ug3570004 bus1=node_3570005.2 bus2=node_ug3570004.2 switch=n length=1325.43000015083 units=ft geometry=#1/0-25kv-jac:#1/0-25kv-jac:1 enabled=true phases=1 
new line.oho_caliente_oh3570044 bus1=node_oh3570008.1.2.3 bus2=node_oh3570044.1.2.3 switch=n length=534.811848784271 units=ft geometry=4a-cwc:4a-cwc:3 enabled=true phases=3 
new line.oho_caliente_oh3570016 bus1=node_57205.3 bus2=node_oh3570016.3 switch=n length=87.38160733255708 units=ft geometry=#4/0-acsr-6/1:#4/0-acsr-6/1:1 enabled=true phases=1 
new line.oho_caliente_oh3570093 bus1=node_oh3570092.3 bus2=node_oh3570093.3 switch=n length=503.32304229000397 units=ft geometry=#4/0-acsr-6/1:#4/0-acsr-6/1:1 enabled=true phases=1 
new line.oho_caliente_oh3670002 bus1=node_3670001.3 bus2=node_oh3670002.3 switch=n length=416.970491162116 units=ft geometry=#4/0-acsr-6/1:#4/0-acsr-6/1:1 enabled=true phases=1 
new line.oho_caliente_oh3670010 bus1=node_3670002.3 bus2=node_oh3670010.3 switch=n length=261.81660699816 units=ft geometry=#4/0-acsr-6/1:#4/0-acsr-6/1:1 enabled=true phases=1 
new line.oho_caliente_oh3670037 bus1=node_oh3670035.3 bus2=node_oh3670037.3 switch=n length=582.290024815617 units=ft geometry=#4/0-acsr-6/1:#4/0-acsr-6/1:1 enabled=true phases=1 
new line.oho_caliente_oh3670036 bus1=node_3670007.3 bus2=node_oh3670036.3 switch=n length=487.560378312173 units=ft geometry=#4/0-acsr-6/1:#4/0-acsr-6/1:1 enabled=true phases=1 
new line.oho_caliente_ug3770002 bus1=node_3770004.3 bus2=node_ug3770002.3 switch=n length=271.616303082323 units=ft geometry=#1/0-25kv-jac:#1/0-25kv-jac:1 enabled=true phases=1 
new line.oho_caliente_ug3770004 bus1=node_3770005.3 bus2=node_ug3770004.3 switch=n length=658.090142837412 units=ft geometry=#1/0-25kv-jac:#1/0-25kv-jac:1 enabled=true phases=1 
new line.oho_caliente_oh3770039 bus1=node_oh3770035.3 bus2=node_oh3770039.3 switch=n length=448.359400806542 units=ft geometry=#4/0-acsr-6/1:#4/0-acsr-6/1:1 enabled=true phases=1 
new line.oho_caliente_oh3770040 bus1=node_oh3770035.3 bus2=node_oh3770040.3 switch=n length=564.23645470754 units=ft geometry=#4/0-acsr-6/1:#4/0-acsr-6/1:1 enabled=true phases=1 
new line.oho_caliente_ug3770001 bus1=node_3770003.3 bus2=node_ug3770001.3 switch=n length=321.818949763962 units=ft geometry=#1/0-25kv-jac:#1/0-25kv-jac:1 enabled=true phases=1 
new line.oho_caliente_oh3670039 bus1=node_oh3670038.3 bus2=node_oh3670039.3 switch=n length=610.410055372765 units=ft geometry=#4/0-acsr-6/1:#4/0-acsr-6/1:1 enabled=true phases=1 
new line.oho_caliente_ug3670003 bus1=node_3670008.3 bus2=node_ug3670003.3 switch=n length=1695.73251230858 units=ft geometry=#1/0-25kv-jac:#1/0-25kv-jac:1 enabled=true phases=1 
new line.oho_caliente_oh3670034 bus1=node_oh3670033.3 bus2=node_oh3670034.3 switch=n length=199.532018733854 units=ft geometry=#4/0-acsr-6/1:#4/0-acsr-6/1:1 enabled=true phases=1 
new line.oho_caliente_ug3670001 bus1=node_3670006.3 bus2=node_ug3670001.3 switch=n length=592.200146234495 units=ft geometry=#1/0-25kv-jac:#1/0-25kv-jac:1 enabled=true phases=1 
new line.oho_caliente_oh3670051 bus1=node_oh3670021.3 bus2=node_oh3670051.3 switch=n length=476.874667077061 units=ft geometry=#4/0-acsr-6/1:#4/0-acsr-6/1:1 enabled=true phases=1 
new line.oho_caliente_oh3670023 bus1=node_3670005.3 bus2=node_oh3670023.3 switch=n length=272.889582431988 units=ft geometry=#4/0-acsr-6/1:#4/0-acsr-6/1:1 enabled=true phases=1 
new line.oho_caliente_ug3660001 bus1=node_3660001.3 bus2=node_ug3660001.3 switch=n length=760.406494251646 units=ft geometry=#1/0-25kv-jac:#1/0-25kv-jac:1 enabled=true phases=1 
new line.oho_caliente_oh3670022 bus1=node_3670004.3 bus2=node_oh3670022.3 switch=n length=416.331853813806 units=ft geometry=#4/0-acsr-6/1:#4/0-acsr-6/1:1 enabled=true phases=1 
new line.oho_caliente_oh3670016 bus1=node_oh3670014.3 bus2=node_oh3670016.3 switch=n length=577.400261950202 units=ft geometry=#4/0-acsr-6/1:#4/0-acsr-6/1:1 enabled=true phases=1 
new line.oho_caliente_oh3570042 bus1=node_oh3570040.3 bus2=node_oh3570042.3 switch=n length=192.06564216413298 units=ft geometry=#4/0-acsr-6/1:#4/0-acsr-6/1:1 enabled=true phases=1 
new line.oho_caliente_oh3570095 bus1=node_3570008.3 bus2=node_oh3570095.3 switch=n length=200.008116335284 units=ft geometry=#4/0-acsr-6/1:#4/0-acsr-6/1:1 enabled=true phases=1 
new line.oho_caliente_ug3570003 bus1=node_3570007.3 bus2=node_ug3570003.3 switch=n length=328.18646711899396 units=ft geometry=#1/0-25kv-jac:#1/0-25kv-jac:1 enabled=true phases=1 
new line.oho_caliente_oh3570035 bus1=node_oh3570030.3 bus2=node_oh3570035.3 switch=n length=636.8832671692311 units=ft geometry=#4/0-acsr-6/1:#4/0-acsr-6/1:1 enabled=true phases=1 
new line.oho_caliente_oh3570032 bus1=node_3570006.3 bus2=node_oh3570032.3 switch=n length=521.007378834492 units=ft geometry=#4/0-acsr-6/1:#4/0-acsr-6/1:1 enabled=true phases=1 
new line.oho_caliente_oh3570031 bus1=node_3570006.3 bus2=node_oh3570031.3 switch=n length=432.675113682508 units=ft geometry=#4/0-acsr-6/1:#4/0-acsr-6/1:1 enabled=true phases=1 
new line.oho_caliente_oh3560001 bus1=node_oh3560022.3 bus2=node_oh3560001.3 switch=n length=325.85925136481 units=ft geometry=#4/0-acsr-6/1:#4/0-acsr-6/1:1 enabled=true phases=1 
new line.oho_caliente_ug3560001 bus1=node_3560001.3 bus2=node_ug3560001.3 switch=n length=1137.37898151843 units=ft geometry=#1/0-25kv-jac:#1/0-25kv-jac:1 enabled=true phases=1 
new line.oho_caliente_ug3560003 bus1=node_3560002.3 bus2=node_ug3560003.3 switch=n length=269.631505948461 units=ft geometry=#1/0-25kv-jac:#1/0-25kv-jac:1 enabled=true phases=1 
new line.oho_caliente_oh3570008 bus1=node_oh3570006.1.2.3 bus2=node_oh3570008.1.2.3 switch=n length=189.01467932413001 units=ft geometry=4a-cwc:4a-cwc:3 enabled=true phases=3 
new line.oho_caliente_oh3570007 bus1=node_3570001.1 bus2=node_oh3570007.1 switch=n length=152.63015855317 units=ft geometry=#4/0-acsr-6/1:#4/0-acsr-6/1:1 enabled=true phases=1 
new line.oho_caliente_oh3570014 bus1=node_oh3570013.1 bus2=node_oh3570014.1 switch=n length=593.232077521313 units=ft geometry=#4/0-acsr-6/1:#4/0-acsr-6/1:1 enabled=true phases=1 
new line.oho_caliente_ug3570002 bus1=node_3570003.1 bus2=node_ug3570002.1 switch=n length=290.894137617163 units=ft geometry=#1/0-25kv-jac:#1/0-25kv-jac:1 enabled=true phases=1 
new line.oho_caliente_oh3570011 bus1=node_oh3570010.1 bus2=node_oh3570011.1 switch=n length=205.186395260438 units=ft geometry=#4/0-acsr-6/1:#4/0-acsr-6/1:1 enabled=true phases=1 
new line.oho_caliente_ug3570001 bus1=node_3570002.1 bus2=node_ug3570001.1 switch=n length=281.71365621841704 units=ft geometry=#1/0-25kv-jac:#1/0-25kv-jac:1 enabled=true phases=1 
new line.oho_caliente_oh3540063 bus1=node_oh3540036.1.2.3 bus2=node_oh3540063.1.2.3 switch=n length=519.629792063566 units=ft geometry=4a-cwc:4a-cwc:3 enabled=true phases=3 
new line.oho_caliente_oh3540037 bus1=node_3540003.3 bus2=node_oh3540037.3 switch=n length=478.451232415435 units=ft geometry=#4/0-acsr-6/1:#4/0-acsr-6/1:1 enabled=true phases=1 
new line.oho_caliente_oh3540001 bus1=node_oh3540030.1.2.3 bus2=node_oh3540001.1.2.3 switch=n length=145.936764730365 units=ft geometry=#1/0-acsr-6/1:#2-acsr-6/1:3 enabled=true phases=3 
new line.oho_caliente_ug3540001 bus1=node_3540002.1 bus2=node_ug3540001.1 switch=n length=266.90302658464805 units=ft geometry=#1/0-25kv-jac:#1/0-25kv-jac:1 enabled=true phases=1 
new line.oho_caliente_oh3540027 bus1=node_oh3540026.1.2.3 bus2=node_oh3540027.1.2.3 switch=n length=487.16094763419295 units=ft geometry=#1/0-acsr-6/1:#2-acsr-6/1:3 enabled=true phases=3 
new line.oho_caliente_oh3530009 bus1=node_oh3530008.3 bus2=node_oh3530009.3 switch=n length=515.897942038901 units=ft geometry=#4/0-acsr-6/1:#4/0-acsr-6/1:1 enabled=true phases=1 
new line.oho_caliente_ug3630001 bus1=node_3530002.3 bus2=node_ug3630001.3 switch=n length=1037.18455161055 units=ft geometry=#1/0-25kv-jac:#1/0-25kv-jac:1 enabled=true phases=1 
new line.oho_caliente_ug3620001 bus1=node_3620001.3 bus2=node_ug3620001.3 switch=n length=2392.09868134643 units=ft geometry=#1/0-25kv-jac:#1/0-25kv-jac:1 enabled=true phases=1 
new line.oho_caliente_oh3520002 bus1=node_oh3520049.3 bus2=node_oh3520002.3 switch=n length=296.39054809474203 units=ft geometry=#4/0-acsr-6/1:#4/0-acsr-6/1:1 enabled=true phases=1 
new line.oho_caliente_ug3620002 bus1=node_3520001.3 bus2=node_ug3620002.3 switch=n length=1084.9002149965402 units=ft geometry=#1/0-25kv-jac:#1/0-25kv-jac:1 enabled=true phases=1 
new line.oho_caliente_oh3530003 bus1=node_oh3530002.3 bus2=node_oh3530003.3 switch=n length=400.400617861272 units=ft geometry=#4/0-acsr-6/1:#4/0-acsr-6/1:1 enabled=true phases=1 
new line.oho_caliente_ug3530001 bus1=node_3530001.3 bus2=node_ug3530001.3 switch=n length=656.899484700689 units=ft geometry=#1/0-25kv-jac:#1/0-25kv-jac:1 enabled=true phases=1 
new line.oho_caliente_ug_3_45_13_2_0001 bus1=node_fuse_prefix_3_45_14_1_000.1.2.3 bus2=node_ug_3_45_13_2_0001.1.2.3 switch=n length=131.020902070979 units=ft geometry=#1/0-25kv-jac:#1/0-25kv-jac:3 enabled=true phases=3 
new line.oho_caliente_ug_3_45_13_2_0002 bus1=node_fuse_prefix_3_45_14_1_000.1.2.3 bus2=node_ug_3_45_13_2_0002.1.2.3 switch=n length=47.709607828248 units=ft geometry=#1/0-25kv-jac:#1/0-25kv-jac:3 enabled=true phases=3 
new line.oho_caliente_oh_3_45_14_1_0004 bus1=node_oh_3_45_14_1_0001.1.2.3 bus2=node_oh_3_45_14_1_0004.1.2.3 switch=n length=187.648431270659 units=ft geometry=#1/0-acsr-6/1:#2-acsr-6/1:3 enabled=true phases=3 
new line.oho_caliente_ug_3_45_13_4_0001 bus1=node_fuse_prefix_3_45_14_3_000.1.2.3 bus2=node_ug_3_45_13_4_0001.1.2.3 switch=n length=117.106643797374 units=ft geometry=#1/0-25kv-jac:#1/0-25kv-jac:3 enabled=true phases=3 
new line.oho_caliente_oh4300184 bus1=node_bay_ojo_caliente.1.2.3 bus2=node_oh4300184.1.2.3 switch=n length=470.127779712385 units=ft geometry=500-mcm-25kv-jacc:500-mcm-25kv-jacc:3 enabled=true phases=3 
new line.oho_caliente_oh4302736 bus1=node_108723-571106722-57108724.1.2.3 bus2=node_oh4302736.1.2.3 switch=n length=412.00342923312894 units=ft geometry=#1/0-acsr-6/1:#2-acsr-6/1:3 enabled=true phases=3 
new line.oho_caliente_ug4300512 bus1=node_ocd4302585.3 bus2=node_ug4300512.3 switch=n length=416.30319431864194 units=ft geometry=#1/0-25kv-jac:#1/0-25kv-jac:1 enabled=true phases=1 
new line.oho_caliente_ug4303117 bus1=node_ocd4302981.2 bus2=node_ug4303117.2 switch=n length=130.23375445725299 units=ft geometry=#1/0-25kv-jac:#1/0-25kv-jac:1 enabled=true phases=1 
new line.oho_caliente_oh4303796 bus1=node_oh4303789.3 bus2=node_oh4303796.3 switch=n length=172.283205217579 units=ft geometry=#1/0-acsr-6/1:#2-acsr-6/1:1 enabled=true phases=1 
new line.oho_caliente_oh4303795 bus1=node_oh4303789.1.2.3 bus2=node_oh4303795.1.2.3 switch=n length=194.600762117619 units=ft geometry=#1/0-acsr-6/1:#2-acsr-6/1:3 enabled=true phases=3 
new line.oho_caliente_ug4303793 bus1=node_ocd4303792.3 bus2=node_ug4303793.3 switch=n length=378.25955638950796 units=ft geometry=#1/0-25kv-jac:#1/0-25kv-jac:1 enabled=true phases=1 
new line.oho_caliente_oh4300599 bus1=node_oh4303122.3 bus2=node_oh4300599.3 switch=n length=425.034385667945 units=ft geometry=#1/0-acsr-6/1:#2-acsr-6/1:1 enabled=true phases=1 
new line.oho_caliente_oh4303887 bus1=node_oh4303886.3 bus2=node_oh4303887.3 switch=n length=119.501474886457 units=ft geometry=#1/0-acsr-6/1:#2-acsr-6/1:1 enabled=true phases=1 
new line.oho_caliente_ug4303858 bus1=node_ocd4303857.3 bus2=node_ug4303858.3 switch=n length=298.55451859198297 units=ft geometry=#1/0-25kv-jac:#1/0-25kv-jac:1 enabled=true phases=1 
new line.oho_caliente_oh4300593 bus1=node_oh4300591.1.2.3 bus2=node_oh4300593.1.2.3 switch=n length=239.0435194686 units=ft geometry=#1/0-acsr-6/1:#2-acsr-6/1:3 enabled=true phases=3 
new line.oho_caliente_ug4300595 bus1=node_ocd4302590.3 bus2=node_ug4300595.3 switch=n length=606.917200283551 units=ft geometry=#1/0-25kv-jac:#1/0-25kv-jac:1 enabled=true phases=1 
new line.oho_caliente_oh4300322 bus1=node_oh4300316.1.2.3 bus2=node_oh4300322.1.2.3 switch=n length=233.411685225858 units=ft geometry=#1/0-acsr-6/1:#2-acsr-6/1:3 enabled=true phases=3 
new line.oho_caliente_ug4302735 bus1=node_ocd4301070.1.2.3 bus2=node_ug4302735.1.2.3 switch=n length=7.959507616426901 units=ft geometry=none:none:3 enabled=true phases=3 
new line.oho_caliente_ug4300321 bus1=node_ocd4307998.3 bus2=node_ug4300321.3 switch=n length=184.72894223701303 units=ft geometry=#1/0-25kv-jac:#1/0-25kv-jac:1 enabled=true phases=1 
new line.oho_caliente_ug4300297 bus1=node_ocd4302569.1.2.3 bus2=node_ug4300297.1.2.3 switch=n length=14.6102611689873 units=ft geometry=#1/0-25kv-jac:#1/0-25kv-jac:3 enabled=true phases=3 
new line.oho_caliente_ug4300154 bus1=node_ocd4302569.3 bus2=node_ug4300154.3 switch=n length=5.3484203277398095 units=ft geometry=none:none:1 enabled=true phases=1 
new line.oho_caliente_ug_3_45_23_1_0001 bus1=node_la_madera.1.2.3 bus2=node_ug_3_45_23_1_0001.1.2.3 switch=n length=858.7316613372391 units=ft geometry=500-mcm-25kv-jacc:500-mcm-25kv-jacc:3 enabled=true phases=3 
new line.oho_caliente_ug21000110 bus1=node_ocd21000101.1.2.3 bus2=node_ug21000110.1.2.3 switch=n length=502.407282839948 units=ft geometry=#4/0-25kv-jac:#4/0-25kv-jac:3 enabled=true phases=3 
new line.oho_caliente_ug_3_34_70_4_0001 bus1=node_ocd21000109.1 bus2=node_ug_3_34_70_4_0001.1 switch=n length=188.961285965932 units=ft geometry=#1/0-25kv-jac:#1/0-25kv-jac:1 enabled=true phases=1 
new line.oho_caliente_ug21000112 bus1=node_ocd21000109.1.2.3 bus2=node_ug21000112.1.2.3 switch=n length=622.9900695797701 units=ft geometry=#4/0-25kv-jac:#4/0-25kv-jac:3 enabled=true phases=3 
new line.oho_caliente_ug_3_34_70_2_0001 bus1=node_ocd21000111.3 bus2=node_ug_3_34_70_2_0001.3 switch=n length=30.6684304892628 units=ft geometry=#4/0-25kvjac:#4/0-25kvjac:1 enabled=true phases=1 
new line.oho_caliente_ug21000113 bus1=node_ocd21000111.1.2.3 bus2=node_ug21000113.1.2.3 switch=n length=665.941402244979 units=ft geometry=#4/0-25kv-jac:#4/0-25kv-jac:3 enabled=true phases=3 
new line.oho_caliente_ug21000115 bus1=node_ocd21000071.1.2.3 bus2=node_ug21000115.1.2.3 switch=n length=1.3449889871865002 units=ft geometry=#4/0-25kvjac:#4/0-25kvjac:3 enabled=true phases=3 
new line.oho_caliente_oh_3_34_60_2_0001 bus1=node_oh4300162.1.2.3 bus2=node_oh_3_34_60_2_0001.1.2.3 switch=n length=500.502034020744 units=ft geometry=#2-acsr-6/1:#2-acsr-6/1:3 enabled=true phases=3 
new line.oho_caliente_oh4302806 bus1=node_oh4302805.1.2.3 bus2=node_oh4302806.1.2.3 switch=n length=461.37168931362396 units=ft geometry=#2-acsr-6/1:#2-acsr-6/1:3 enabled=true phases=3 
new line.oho_caliente_ug4303064 bus1=node_ocd4303063.3 bus2=node_ug4303064.3 switch=n length=232.78926113538103 units=ft geometry=#1/0-25kv-jac:#1/0-25kv-jac:1 enabled=true phases=1 
new line.oho_caliente_oh4300644 bus1=node_ocd4300666.3 bus2=node_oh4300644.3 switch=n length=58.4510906656054 units=ft geometry=#4-acsr-6/1:#4-acsr-6/1:1 enabled=true phases=1 
new line.oho_caliente_oh3410009 bus1=node_67383.3 bus2=node_oh3410009.3 switch=n length=381.850831739299 units=ft geometry=#4-acsr-6/1:#4-acsr-6/1:1 enabled=true phases=1 
new line.oho_caliente_oh3110032 bus1=node_oh3110016.3 bus2=node_oh3110032.3 switch=n length=190.09390863455502 units=ft geometry=#4-acsr-6/1:#4-acsr-6/1:1 enabled=true phases=1 
new line.oho_caliente_oh3110043 bus1=node_cp57119947.3 bus2=node_oh3110043.3 switch=n length=370.925398968654 units=ft geometry=#4-acsr-6/1:#4-acsr-6/1:1 enabled=true phases=1 
new line.oho_caliente_oh310004 bus1=node_07537a-4.3 bus2=node_oh310004.3 switch=n length=381.245875518702 units=ft geometry=#4-acsr-6/1:#4-acsr-6/1:1 enabled=true phases=1 
new line.oho_caliente_oh3210001 bus1=node_oh3210022.3 bus2=node_oh3210001.3 switch=n length=246.914229642659 units=ft geometry=#4-acsr-6/1:#4-acsr-6/1:1 enabled=true phases=1 
new line.oho_caliente_oh3210034 bus1=node_104714.3 bus2=node_oh3210034.3 switch=n length=498.164710311766 units=ft geometry=#4-acsr-6/1:#4-acsr-6/1:1 enabled=true phases=1 
new line.oho_caliente_oh3320055 bus1=node_oh3320054.3 bus2=node_oh3320055.3 switch=n length=268.057575904993 units=ft geometry=#4-acsr-6/1:#4-acsr-6/1:1 enabled=true phases=1 
new line.oho_caliente_ug3320001 bus1=node_3320001.3 bus2=node_ug3320001.3 switch=n length=414.61028556949896 units=ft geometry=#1/0-25kv-jac:#1/0-25kv-jac:1 enabled=true phases=1 
new line.oho_caliente_ug3310001 bus1=node_3310001.3 bus2=node_ug3310001.3 switch=n length=660.086044471813 units=ft geometry=#1/0-25kv-jac:#1/0-25kv-jac:1 enabled=true phases=1 
new line.oho_caliente_ug3320002 bus1=node_3320002.3 bus2=node_ug3320002.3 switch=n length=279.25868187025503 units=ft geometry=#1/0-25kv-jac:#1/0-25kv-jac:1 enabled=true phases=1 
new line.oho_caliente_oh4300775 bus1=node_oh4300769.1 bus2=node_oh4300775.1 switch=n length=449.716018752022 units=ft geometry=#4/0-acsr-6/1:#4/0-acsr-6/1:1 enabled=true phases=1 
new line.oho_caliente_oh4300770 bus1=node_oh4300769.1 bus2=node_oh4300770.1 switch=n length=225.702512391888 units=ft geometry=none:none:1 enabled=true phases=1 
new line.oho_caliente_oh4300776 bus1=node_069868-2.1 bus2=node_oh4300776.1 switch=n length=503.66061122555396 units=ft geometry=#4-acsr-6/1:#4-acsr-6/1:1 enabled=true phases=1 
new line.oho_caliente_oh4300834 bus1=node_ocd4300272.1 bus2=node_oh4300834.1 switch=n length=625.899709857665 units=ft geometry=#4-acsr-6/1:#4-acsr-6/1:1 enabled=true phases=1 
new line.oho_caliente_oh4300849 bus1=node_oh4300848.1 bus2=node_oh4300849.1 switch=n length=479.164379414738 units=ft geometry=#4-acsr-6/1:#4-acsr-6/1:1 enabled=true phases=1 
new line.oho_caliente_oh4300908 bus1=node_oh4300854.1 bus2=node_oh4300908.1 switch=n length=258.786524571697 units=ft geometry=#4/0-acsr-6/1:#4/0-acsr-6/1:1 enabled=true phases=1 
new line.oho_caliente_oh4300857 bus1=node_oh4300854.1 bus2=node_oh4300857.1 switch=n length=236.806917339657 units=ft geometry=#4-acsr-6/1:#4-acsr-6/1:1 enabled=true phases=1 
new line.oho_caliente_oh4300856 bus1=node_oh4300854.1 bus2=node_oh4300856.1 switch=n length=115.259361875856 units=ft geometry=#4/0-acsr-6/1:#4/0-acsr-6/1:1 enabled=true phases=1 
new line.oho_caliente_ug4303077 bus1=node_ocd4308020.1 bus2=node_ug4303077.1 switch=n length=298.80502840464 units=ft geometry=#1/0-25kv-jac:#1/0-25kv-jac:1 enabled=true phases=1 
new line.oho_caliente_oh4300623 bus1=node_oh4302807.1.2.3 bus2=node_oh4300623.1.2.3 switch=n length=488.20995493721705 units=ft geometry=#2-acsr-6/1:#2-acsr-6/1:3 enabled=true phases=3 
new line.oho_caliente_oh4302808 bus1=node_oh4302807.3 bus2=node_oh4302808.3 switch=n length=160.156474987221 units=ft geometry=#1/0-acsr-6/1:#2-acsr-6/1:1 enabled=true phases=1 
new line.oho_caliente_ug4302810 bus1=node_ocd4302745.1 bus2=node_ug4302810.1 switch=n length=236.678287977639 units=ft geometry=#1/0-25kv-jac:#1/0-25kv-jac:1 enabled=true phases=1 
new line.oho_caliente_oh4303157 bus1=node_ug4303156.1.2.3 bus2=node_oh4303157.1.2.3 switch=n length=82.9463498634391 units=ft geometry=#1/0-acsr-6/1:#2-acsr-6/1:3 enabled=true phases=3 
new line.oho_caliente_oh4302332 bus1=node_oh4303157.1.2.3 bus2=node_oh4302332.1.2.3 switch=n length=232.99954613677798 units=ft geometry=#1/0-acsr-6/1:#2-acsr-6/1:3 enabled=true phases=3 
new line.oho_caliente_oh4302334 bus1=node_oh4302332.1.2.3 bus2=node_oh4302334.1.2.3 switch=n length=252.341190652713 units=ft geometry=#1/0-acsr-6/1:#2-acsr-6/1:3 enabled=true phases=3 
new line.oho_caliente_oh4302335 bus1=node_oh4302334.1.2.3 bus2=node_oh4302335.1.2.3 switch=n length=241.554250635212 units=ft geometry=#1/0-acsr-6/1:#2-acsr-6/1:3 enabled=true phases=3 
new line.oho_caliente_oh4300606 bus1=node_oh4302335.1.2.3 bus2=node_oh4300606.1.2.3 switch=n length=424.085604683862 units=ft geometry=#1/0-acsr-6/1:#2-acsr-6/1:3 enabled=true phases=3 
new line.oho_caliente_oh4302339 bus1=node_oh4300606.1.2.3 bus2=node_oh4302339.1.2.3 switch=n length=349.532151596828 units=ft geometry=#1/0-acsr-6/1:#2-acsr-6/1:3 enabled=true phases=3 
new line.oho_caliente_oh4302345 bus1=node_oh4302339.1.2.3 bus2=node_oh4302345.1.2.3 switch=n length=368.716990251434 units=ft geometry=#1/0-acsr-6/1:#2-acsr-6/1:3 enabled=true phases=3 
new line.oho_caliente_oh4302347 bus1=node_oh4302345.1.2.3 bus2=node_oh4302347.1.2.3 switch=n length=440.288650773468 units=ft geometry=#1/0-acsr-6/1:#2-acsr-6/1:3 enabled=true phases=3 
new line.oho_caliente_oh4302356 bus1=node_oh4302347.1.2.3 bus2=node_oh4302356.1.2.3 switch=n length=219.705299435599 units=ft geometry=#1/0-acsr-6/1:#2-acsr-6/1:3 enabled=true phases=3 
new line.oho_caliente_oh4302362 bus1=node_oh4302356.1.2.3 bus2=node_oh4302362.1.2.3 switch=n length=241.962455145335 units=ft geometry=#1/0-acsr-6/1:#2-acsr-6/1:3 enabled=true phases=3 
new line.oho_caliente_oh4302358 bus1=node_oh4302356.1.2.3 bus2=node_oh4302358.1.2.3 switch=n length=228.63003695916402 units=ft geometry=#1/0-acsr-6/1:#2-acsr-6/1:3 enabled=true phases=3 
new line.oho_caliente_oh4302367 bus1=node_oh4302362.1.2.3 bus2=node_oh4302367.1.2.3 switch=n length=409.606379466977 units=ft geometry=#1/0-acsr-6/1:#2-acsr-6/1:3 enabled=true phases=3 
new line.oho_caliente_oh4302363 bus1=node_oh4302362.3 bus2=node_oh4302363.3 switch=n length=387.80485053703103 units=ft geometry=#1/0-acsr-6/1:#2-acsr-6/1:1 enabled=true phases=1 
new line.oho_caliente_oh4302368 bus1=node_oh4302367.1.2.3 bus2=node_oh4302368.1.2.3 switch=n length=337.134777203275 units=ft geometry=#1/0-acsr-6/1:#2-acsr-6/1:3 enabled=true phases=3 
new line.oho_caliente_oh4300607 bus1=node_oh4302368.1.2.3 bus2=node_oh4300607.1.2.3 switch=n length=280.026753900427 units=ft geometry=#1/0-acsr-6/1:#2-acsr-6/1:3 enabled=true phases=3 
new line.oho_caliente_oh4300608 bus1=node_oh4300607.1.2.3 bus2=node_oh4300608.1.2.3 switch=n length=135.01365856826 units=ft geometry=#1/0-acsr-6/1:#2-acsr-6/1:3 enabled=true phases=3 
new line.oho_caliente_oh4302373 bus1=node_oh4300607.3 bus2=node_oh4302373.3 switch=n length=138.669802047881 units=ft geometry=#1/0-acsr-6/1:#2-acsr-6/1:1 enabled=true phases=1 
new line.oho_caliente_oh4302382 bus1=node_oh4300608.3 bus2=node_oh4302382.3 switch=n length=287.206477991069 units=ft geometry=#1/0-acsr-6/1:#2-acsr-6/1:1 enabled=true phases=1 
new line.oho_caliente_oh4302372 bus1=node_oh4300608.1.2.3 bus2=node_oh4302372.1.2.3 switch=n length=345.527602515423 units=ft geometry=#1/0-acsr-6/1:#2-acsr-6/1:3 enabled=true phases=3 
new line.oho_caliente_oh4302383 bus1=node_oh4302372.1.2.3 bus2=node_oh4302383.1.2.3 switch=n length=1101.96374881384 units=ft geometry=#1/0-acsr-6/1:#2-acsr-6/1:3 enabled=true phases=3 
new line.oho_caliente_oh4302386 bus1=node_oh4302383.1.2.3 bus2=node_oh4302386.1.2.3 switch=n length=600.1729854800319 units=ft geometry=#1/0-acsr-6/1:#2-acsr-6/1:3 enabled=true phases=3 
new line.oho_caliente_oh4302384 bus1=node_xfmr4302998.1 bus2=node_oh4302384.1 switch=n length=106.01736343756001 units=ft geometry=trip-#1/0:trip-#1/0:1 enabled=true phases=1 
new line.oho_caliente_oh4302387 bus1=node_oh4302386.1.2.3 bus2=node_oh4302387.1.2.3 switch=n length=362.718317293197 units=ft geometry=#1/0-acsr-6/1:#2-acsr-6/1:3 enabled=true phases=3 
new line.oho_caliente_oh4302393 bus1=node_xfmr4303196.2 bus2=node_oh4302393.2 switch=n length=135.279995934269 units=ft geometry=trip-#1/0:trip-#1/0:1 enabled=true phases=1 
new line.oho_caliente_oh4302389 bus1=node_oh4302387.1 bus2=node_oh4302389.1 switch=n length=239.93309671653 units=ft geometry=#1/0-acsr-6/1:#2-acsr-6/1:1 enabled=true phases=1 
new line.oho_caliente_oh4302388 bus1=node_oh4302387.1.2.3 bus2=node_oh4302388.1.2.3 switch=n length=302.384331108663 units=ft geometry=#1/0-acsr-6/1:#2-acsr-6/1:3 enabled=true phases=3 
new line.oho_caliente_oh4302391 bus1=node_xfmr4303197.3 bus2=node_oh4302391.3 switch=n length=83.10516831117141 units=ft geometry=trip-#1/0:trip-#1/0:1 enabled=true phases=1 
new line.oho_caliente_oh4302390 bus1=node_xfmr4303198.1 bus2=node_oh4302390.1 switch=n length=101.082455945845 units=ft geometry=trip-#1/0:trip-#1/0:1 enabled=true phases=1 
new line.oho_caliente_oh4302400 bus1=node_oh4302388.1.2.3 bus2=node_oh4302400.1.2.3 switch=n length=480.591162007903 units=ft geometry=#1/0-acsr-6/1:#2-acsr-6/1:3 enabled=true phases=3 
new line.oho_caliente_oh4302397 bus1=node_oh4302388.2 bus2=node_oh4302397.2 switch=n length=306.469323913345 units=ft geometry=#1/0-acsr-6/1:#2-acsr-6/1:1 enabled=true phases=1 
new line.oho_caliente_oh4302401 bus1=node_oh4302400.1.2.3 bus2=node_oh4302401.1.2.3 switch=n length=16.5429864292836 units=ft geometry=#1/0-acsr-6/1:#2-acsr-6/1:3 enabled=true phases=3 
new line.oho_caliente_oh4302402 bus1=node_oh4302401.1.2.3 bus2=node_oh4302402.1.2.3 switch=n length=466.937950909803 units=ft geometry=#1/0-acsr-6/1:#2-acsr-6/1:3 enabled=true phases=3 
new line.oho_caliente_oh4302403 bus1=node_oh4302402.1.2.3 bus2=node_oh4302403.1.2.3 switch=n length=468.88327438723803 units=ft geometry=#1/0-acsr-6/1:#2-acsr-6/1:3 enabled=true phases=3 
new line.oho_caliente_oh4302405 bus1=node_oh4302403.1.2.3 bus2=node_oh4302405.1.2.3 switch=n length=382.441917876287 units=ft geometry=#1/0-acsr-6/1:#2-acsr-6/1:3 enabled=true phases=3 
new line.oho_caliente_oh4300609 bus1=node_oh4302405.1.2.3 bus2=node_oh4300609.1.2.3 switch=n length=425.625676377299 units=ft geometry=#1/0-acsr-6/1:#2-acsr-6/1:3 enabled=true phases=3 
new line.oho_caliente_oh4302406 bus1=node_oh4300609.1.2.3 bus2=node_oh4302406.1.2.3 switch=n length=542.845436485026 units=ft geometry=#1/0-acsr-6/1:#2-acsr-6/1:3 enabled=true phases=3 
new line.oho_caliente_oh4302407 bus1=node_oh4302406.1.2.3 bus2=node_oh4302407.1.2.3 switch=n length=232.178571171535 units=ft geometry=#1/0-acsr-6/1:#2-acsr-6/1:3 enabled=true phases=3 
new line.oho_caliente_oh4302408 bus1=node_oh4302407.1.2.3 bus2=node_oh4302408.1.2.3 switch=n length=493.936898600357 units=ft geometry=#1/0-acsr-6/1:#2-acsr-6/1:3 enabled=true phases=3 
new line.oho_caliente_oh4302437 bus1=node_oh4302408.1.2.3 bus2=node_oh4302437.1.2.3 switch=n length=394.92736610669 units=ft geometry=#1/0-acsr-6/1:#2-acsr-6/1:3 enabled=true phases=3 
new line.oho_caliente_oh4302440 bus1=node_oh4302437.1.2.3 bus2=node_oh4302440.1.2.3 switch=n length=715.948826453338 units=ft geometry=#1/0-acsr-6/1:#2-acsr-6/1:3 enabled=true phases=3 
new line.oho_caliente_oh4302442 bus1=node_oh4302440.1.2.3 bus2=node_oh4302442.1.2.3 switch=n length=102.336111233423 units=ft geometry=#1/0-acsr-6/1:#2-acsr-6/1:3 enabled=true phases=3 
new line.oho_caliente_oh4302448 bus1=node_oh4302442.1.2.3 bus2=node_oh4302448.1.2.3 switch=n length=281.553966492966 units=ft geometry=#1/0-acsr-6/1:#2-acsr-6/1:3 enabled=true phases=3 
new line.oho_caliente_oh_3_35_71_1_0003 bus1=node_oh4302448.1.2.3 bus2=node_oh_3_35_71_1_0003.1.2.3 switch=n length=257.823653322348 units=ft geometry=#1/0-acsr-6/1:#2-acsr-6/1:3 enabled=true phases=3 
new line.oho_caliente_ug21000116 bus1=node_oh_3_35_71_1_0003.1.2.3 bus2=node_ug21000116.1.2.3 switch=n length=14.376771585482302 units=ft geometry=#4/0-25kvjac:#4/0-25kvjac:3 enabled=true phases=3 
new line.oho_caliente_oh4301302 bus1=node_ug21000126.1.2.3 bus2=node_oh4301302.1.2.3 switch=n length=314.81981734078204 units=ft geometry=#2-acsr-6/1:#2-acsr-6/1:3 enabled=true phases=3 
...
