files/ojo_caliente/Switches.dss
new line.sw4307458 bus1=node_oh4307457.3 bus2=node_sw4307458.3 switch=y length=0.001 units=ft enabled=true phases=1 
new line.sw3540001 bus1=node_oh3540035.1.2.3 bus2=node_sw3540001.1.2.3 switch=y length=0.001 units=ft enabled=true phases=3 
new line.sw3570001 bus1=node_oh3570005.1.2.3 bus2=node_sw3570001.1.2.3 switch=y length=0.001 units=ft enabled=true phases=3 
new line.sw3580001 bus1=node_oh3580027.1.2.3 bus2=node_sw3580001.1.2.3 switch=y length=0.001 units=ft enabled=true phases=3 
new line.sw3570003 bus1=node_oh3570036.3 bus2=node_sw3570003.3 switch=y length=0.001 units=ft enabled=true phases=1 
new line.sw3670001 bus1=node_oh3670020.3 bus2=node_sw3670001.3 switch=y length=0.001 units=ft enabled=true phases=1 
new line.sw3670003 bus1=node_oh3670048.3 bus2=node_sw3670003.3 switch=y length=0.001 units=ft enabled=true phases=1 
new line.sw4302570 bus1=node_oh4300315.1.2.3 bus2=node_sw4302570.1.2.3 switch=y length=0.001 units=ft enabled=true phases=3 
new line.sw3210001 bus1=node_oh3210007.3 bus2=node_sw3210001.3 switch=y length=0.001 units=ft enabled=true phases=1 
new line.sw4307458-b bus1=node_sw4307458.3 bus2=node_sw4307458-b.3 switch=y length=0.001 units=ft enabled=true phases=1 
new line.sw3540002 bus1=node_sw3540001.1.2.3 bus2=node_sw3540002.1.2.3 switch=y length=0.001 units=ft enabled=true phases=3 
new line.sw3570002 bus1=node_sw3570001.1.2.3 bus2=node_sw3570002.1.2.3 switch=y length=0.001 units=ft enabled=true phases=3 
new line.sw3570004 bus1=node_sw3570003.3 bus2=node_sw3570004.3 switch=y length=0.001 units=ft enabled=true phases=1 
new line.sw3670002 bus1=node_sw3670001.3 bus2=node_sw3670002.3 switch=y length=0.001 units=ft enabled=true phases=1 
new line.sw3670004 bus1=node_sw3670003.3 bus2=node_sw3670004.3 switch=y length=0.001 units=ft enabled=true phases=1 
new line.sw4302570-b bus1=node_sw4302570.1.2.3 bus2=node_sw4302570-b.1.2.3 switch=y length=0.001 units=ft enabled=true phases=3 
new line.sw3210002 bus1=node_sw3210001.3 bus2=node_sw3210002.3 switch=y length=0.001 units=ft enabled=true phases=1 
new line.ojo_caliente bus1=ojo_caliente_node_root.1.2.3 bus2=node_ojo_caliente.1.2.3 switch=y length=0.001 units=ft enabled=true phases=3 
new line.MissingComp bus1=node_oh4300599.3 bus2=node_oh4303123.3 switch=y length=0.001 units=ft enabled=true phases=1