files/ojo_caliente/Transformers.dss
new transformer.xfmr4301285 buses=[node_oh4301275.1 node_xfmr4301285.1] xfmrcode=0-kva-1ph 
new transformer.xfmr4307469 buses=[node_oh4307466.3 node_xfmr4307469.3] xfmrcode=0-kva-1ph-ug 
new transformer.xfmr4300830 buses=[node_oh_3_32_25_3_0001.3 node_xfmr4300830.3] xfmrcode=0-kva-1ph-ug 
new transformer.xfmr4301474 buses=[node_oh4301470.3 node_xfmr4301474.3] xfmrcode=0-kva-1ph-ug 
new transformer.xfmr4307351 buses=[node_oh4307348.3 node_xfmr4307351.3] xfmrcode=0-kva-1ph-ug 
new transformer.t_3120 buses=[node_oh4301581.2 node_t_3120.2] xfmrcode=0-kva-1ph-ug 
new transformer.xfmr4301955 buses=[node_oh4302612.3 node_xfmr4301955.3] xfmrcode=0-kva-1ph-ug 
new transformer.xfmr4301933 buses=[node_oh4301928.3 node_xfmr4301933.3] xfmrcode=0-kva-1ph-ug 
new transformer.xfmr4301502 buses=[node_oh4301033.3 node_xfmr4301502.3] xfmrcode=0-kva-1ph-ug 
new transformer.xfmr4301129 buses=[node_oh4301123.3 node_xfmr4301129.3] xfmrcode=10-kva-1ph 
new transformer.xfmr4301153 buses=[node_oh4301151.3 node_xfmr4301153.3] xfmrcode=0-kva-1ph-ug 
new transformer.xfmr4301513 buses=[node_oh4301505.1 node_xfmr4301513.1] xfmrcode=10-kva-1ph 
new transformer.t3670003 buses=[node_oh3670008.3 node_t3670003.3] xfmrcode=0-kva-1ph-ug 
new transformer.t3770038 buses=[node_oh3770115.3 node_t3770038.3] xfmrcode=10-kva-1ph 
new transformer.t3770034 buses=[node_oh3770035.3 node_t3770034.3] xfmrcode=0-kva-1ph-ug 
new transformer.t3770003 buses=[node_oh3770015.3 node_t3770003.3] xfmrcode=0-kva-1ph-ug 
new transformer.t3660003 buses=[node_oh3660007.3 node_t3660003.3] xfmrcode=0-kva-1ph-ug 
new transformer.t3670006 buses=[node_oh3670014.3 node_t3670006.3] xfmrcode=10-kva-1ph 
new transformer.t3570010 buses=[node_oh3570039.3 node_t3570010.3] xfmrcode=0-kva-1ph-ug 
new transformer.t3560008 buses=[node_oh3560038.3 node_t3560008.3] xfmrcode=0-kva-1ph-ug 
new transformer.xfmr4302117 buses=[node_oh4300213.1 node_xfmr4302117.1] xfmrcode=25-kva-1ph 
new transformer.xfmr4302182 buses=[node_oh4300486.2 node_xfmr4302182.2] xfmrcode=10-kva-1ph 
new transformer.xfmr4302192 buses=[node_oh4300511.3 node_xfmr4302192.3] xfmrcode=0-kva-1ph-ug 
new transformer.xfmr4303013 buses=[node_oh4303116.2 node_xfmr4303013.2] xfmrcode=0-kva-1ph-ug 
new transformer.xfmr4303790 buses=[node_oh4303789.3 node_xfmr4303790.3] xfmrcode=0-kva-1ph-ug 
new transformer.xfmr4303864 buses=[node_oh4303863.3 node_xfmr4303864.3] xfmrcode=0-kva-1ph-ug 
new transformer.xfmr4302222 buses=[node_oh4300591.3 node_xfmr4302222.3] xfmrcode=0-kva-1ph-ug 
new transformer.t_3_34_60_4_0001 buses=[node_oh4300162.1.2.3 node_t_3_34_60_4_0001.1.2.3] xfmrcode=500-kva-step-1ph 
new transformer.t310002 buses=[node_oh310003.3 node_t310002.3] xfmrcode=5-kva-1-ph 
new transformer.xfmr4302074 buses=[node_oh4300854.1 node_xfmr4302074.1] xfmrcode=0-kva-1ph 
new transformer.xfmr4303106 buses=[node_oh4303076.1 node_xfmr4303106.1] xfmrcode=10-kva-1ph 
new transformer.xfmr4302108 buses=[node_oh4300985.1 node_xfmr4302108.1] xfmrcode=0-kva-1ph 
new transformer.xfmr4302095 buses=[node_oh4300938.1 node_xfmr4302095.1] xfmrcode=0-kva-1ph 
new transformer.xfmr13725 buses=[node_oh4302807.2 node_xfmr13725.2] xfmrcode=10-kva-1ph 
new transformer.xfmr4302990 buses=[node_oh4300606.2 node_xfmr4302990.2] xfmrcode=0-kva-1ph-ug 
new transformer.xfmr4302991 buses=[node_oh4302339.2 node_xfmr4302991.2] xfmrcode=0-kva-1ph-ug 
new transformer.xfmr4302992 buses=[node_oh4302347.1 node_xfmr4302992.1] xfmrcode=10-kva-1ph 
new transformer.xfmr4302995 buses=[node_oh4302367.1 node_xfmr4302995.1] xfmrcode=10-kva-1ph 
new transformer.xfmr4303193 buses=[node_oh4302368.2 node_xfmr4303193.2] xfmrcode=0-kva-1ph-ug 
new transformer.xfmr4303194 buses=[node_oh4300607.2 node_xfmr4303194.2] xfmrcode=0-kva-1ph-ug 
new transformer.xfmr4303195 buses=[node_oh4302382.3 node_xfmr4303195.3] xfmrcode=0-kva-1ph-ug 
new transformer.xfmr4302998 buses=[node_oh4302383.1 node_xfmr4302998.1] xfmrcode=10-kva-1ph 
new transformer.xfmr4303196 buses=[node_oh4302386.2 node_xfmr4303196.2] xfmrcode=0-kva-1ph-ug 
new transformer.xfmr4303197 buses=[node_oh4302387.3 node_xfmr4303197.3] xfmrcode=0-kva-1ph-ug 
new transformer.xfmr4303198 buses=[node_oh4302389.1 node_xfmr4303198.1] xfmrcode=0-kva-1ph 
new transformer.xfmr4301521 buses=[node_oh4301000.3 node_xfmr4301521.3] xfmrcode=10-kva-1ph 
new transformer.t_3_34_67_1_0001 buses=[node_oh4301003.1.2.3 node_t_3_34_67_1_0001.1.2.3] xfmrcode=500-kva-step 
new transformer.xfmr4303892 buses=[node_oh4301428.3 node_xfmr4303892.3] xfmrcode=0-kva-1ph-ug 
new transformer.xfmr4301494 buses=[node_oh4301493.1 node_xfmr4301494.1] xfmrcode=15-kva-1ph 
new transformer.xfmr4301248 buses=[node_oh4301031.3 node_xfmr4301248.3] xfmrcode=0-kva-1ph-ug 
new transformer.xfmr4301136 buses=[node_oh4301124.3 node_xfmr4301136.3] xfmrcode=0-kva-1ph-ug 
new transformer.xfmr4301164 buses=[node_oh4301140.3 node_xfmr4301164.3] xfmrcode=0-kva-1ph-ug 
new transformer.xfmr4301188 buses=[node_oh4301176.3 node_xfmr4301188.3] xfmrcode=0-kva-1ph-ug 
new transformer.xfmr4301195 buses=[node_oh4301193.3 node_xfmr4301195.3] xfmrcode=0-kva-1ph-ug 
new transformer.xfmr4301223 buses=[node_oh4301210.3 node_xfmr4301223.3] xfmrcode=10-kva-1ph 
new transformer.xfmr4301229 buses=[node_oh4301227.1 node_xfmr4301229.1] xfmrcode=0-kva-1ph 
new transformer.xfmr4301252 buses=[node_oh4301251.3 node_xfmr4301252.3] xfmrcode=10-kva-1ph 
new transformer.xfmr4301268 buses=[node_oh4301265.3 node_xfmr4301268.3] xfmrcode=10-kva-1ph 
new transformer.xfmr4301280 buses=[node_oh4301270.3 node_xfmr4301280.3] xfmrcode=0-kva-1ph-ug 
new transformer.xfmr4301274 buses=[node_oh4301273.3 node_xfmr4301274.3] xfmrcode=0-kva-1ph-ug 
new transformer.xfmr4303018 buses=[node_oh4301578.3 node_xfmr4303018.3] xfmrcode=0-kva-1ph-ug 
new transformer.xfmr4301297 buses=[node_oh4301295.2 node_xfmr4301297.2] xfmrcode=0-kva-1ph-ug 
new transformer.xfmr4300154 buses=[node_oh4301298.3 node_xfmr4300154.3] xfmrcode=0-kva-1ph-ug 
new transformer.xfmr4301302 buses=[node_oh4301301.1 node_xfmr4301302.1] xfmrcode=0-kva-1ph 
new transformer.xfmr4301306 buses=[node_oh4301305.3 node_xfmr4301306.3] xfmrcode=0-kva-1ph-ug 
new transformer.xfmr4301316 buses=[node_oh4301314.1 node_xfmr4301316.1] xfmrcode=0-kva-1ph 
new transformer.xfmr4301323 buses=[node_oh4301319.3 node_xfmr4301323.3] xfmrcode=0-kva-1ph-ug 
new transformer.xfmr4303052 buses=[node_oh4303144.3 node_xfmr4303052.3] xfmrcode=15-kva-1ph 
new transformer.xfmr4303053 buses=[node_oh4303145.3 node_xfmr4303053.3] xfmrcode=0-kva-1ph-ug 
new transformer.xfmr4301333 buses=[node_oh4301331.3 node_xfmr4301333.3] xfmrcode=0-kva-1ph-ug 
new transformer.xfmr4301339 buses=[node_oh4301332.3 node_xfmr4301339.3] xfmrcode=0-kva-1ph-ug 
new transformer.xfmr4301345 buses=[node_oh4301340.3 node_xfmr4301345.3] xfmrcode=0-kva-1ph-ug 
new transformer.xfmr4301347 buses=[node_oh4301344.3 node_xfmr4301347.3] xfmrcode=0-kva-1ph-ug 
new transformer.xfmr4301351 buses=[node_oh4301346.3 node_xfmr4301351.3] xfmrcode=0-kva-1ph-ug 
new transformer.xfmr4301353 buses=[node_oh4301350.3 node_xfmr4301353.3] xfmrcode=0-kva-1ph-ug 
new transformer.xfmr4300177 buses=[node_oh4301362.3 node_xfmr4300177.3] xfmrcode=0-kva-1ph-ug 
new transformer.xfmr4301372 buses=[node_oh4301367.3 node_xfmr4301372.3] xfmrcode=0-kva-1ph-ug 
new transformer.xfmr4301371 buses=[node_oh4301368.3 node_xfmr4301371.3] xfmrcode=0-kva-1ph-ug 
new transformer.xfmr4301376 buses=[node_oh4301375.3 node_xfmr4301376.3] xfmrcode=0-kva-1ph-ug 
new transformer.xfmr4301385 buses=[node_oh4301383.3 node_xfmr4301385.3] xfmrcode=0-kva-1ph-ug 
new transformer.xfmr4301395 buses=[node_oh4301391.3 node_xfmr4301395.3] xfmrcode=0-kva-1ph-ug 
new transformer.xfmr4303055 buses=[node_oh4303143.3 node_xfmr4303055.3] xfmrcode=0-kva-1ph-ug 
new transformer.xfmr4301398 buses=[node_oh4301392.3 node_xfmr4301398.3] xfmrcode=0-kva-1ph-ug 
new transformer.xfmr4301394 buses=[node_oh4301393.3 node_xfmr4301394.3] xfmrcode=0-kva-1ph-ug 
new transformer.xfmr4301401 buses=[node_oh4301396.3 node_xfmr4301401.3] xfmrcode=0-kva-1ph-ug 
new transformer.xfmr4301400 buses=[node_oh4301397.3 node_xfmr4301400.3] xfmrcode=0-kva-1ph-ug 
new transformer.xfmr4301404 buses=[node_oh4301403.3 node_xfmr4301404.3] xfmrcode=0-kva-1ph-ug 
new transformer.xfmr4307320 buses=[node_oh4300183.3 node_xfmr4307320.3] xfmrcode=0-kva-1ph-ug 
new transformer.xfmr4301412 buses=[node_oh4301411.3 node_xfmr4301412.3] xfmrcode=0-kva-1ph-ug 
new transformer.xfmr4301414 buses=[node_oh4301413.3 node_xfmr4301414.3] xfmrcode=0-kva-1ph-ug 
new transformer.xfmr4307338 buses=[node_oh4307335.3 node_xfmr4307338.3] xfmrcode=0-kva-1ph-ug 
new transformer.xfmr4301420 buses=[node_oh4301415.3 node_xfmr4301420.3] xfmrcode=0-kva-1ph-ug 
new transformer.xfmr4301419 buses=[node_oh4301417.3 node_xfmr4301419.3] xfmrcode=0-kva-1ph-ug 
new transformer.xfmr4307358 buses=[node_oh4307357.3 node_xfmr4307358.3] xfmrcode=0-kva-1ph-ug 
new transformer.xfmr4307362 buses=[node_oh4307356.3 node_xfmr4307362.3] xfmrcode=0-kva-1ph-ug 
new transformer.xfmr4307364 buses=[node_oh4307355.3 node_xfmr4307364.3] xfmrcode=0-kva-1ph-ug 
new transformer.xfmr4303054 buses=[node_oh4301422.3 node_xfmr4303054.3] xfmrcode=0-kva-1ph-ug 
new transformer.xfmr4301428 buses=[node_oh4301424.3 node_xfmr4301428.3] xfmrcode=0-kva-1ph-ug 
new transformer.xfmr4301430 buses=[node_oh4301425.3 node_xfmr4301430.3] xfmrcode=0-kva-1ph-ug 
new transformer.xfmr4301434 buses=[node_oh4301427.3 node_xfmr4301434.3] xfmrcode=0-kva-1ph-ug 
new transformer.xfmr4301436 buses=[node_oh4301435.3 node_xfmr4301436.3] xfmrcode=0-kva-1ph-ug 
new transformer.xfmr4301448 buses=[node_oh4301447.3 node_xfmr4301448.3] xfmrcode=0-kva-1ph-ug 
new transformer.xfmr4301455 buses=[node_oh4301453.3 node_xfmr4301455.3] xfmrcode=0-kva-1ph-ug 
new transformer.xfmr4301461 buses=[node_oh4301457.3 node_xfmr4301461.3] xfmrcode=0-kva-1ph-ug 
new transformer.xfmr4301464 buses=[node_oh4301463.3 node_xfmr4301464.3] xfmrcode=0-kva-1ph-ug 
new transformer.xfmr4307425 buses=[node_oh4307423.3 node_xfmr4307425.3] xfmrcode=0-kva-1ph-ug 
new transformer.xfmr4301467 buses=[node_oh4301465.3 node_xfmr4301467.3] xfmrcode=0-kva-1ph-ug 
new transformer.xfmr4307428 buses=[node_oh4307426.3 node_xfmr4307428.3] xfmrcode=0-kva-1ph-ug 
new transformer.xfmr4307436 buses=[node_oh4307435.3 node_xfmr4307436.3] xfmrcode=0-kva-1ph-ug 
new transformer.xfmr4307440 buses=[node_oh4307439.3 node_xfmr4307440.3] xfmrcode=0-kva-1ph-ug 
new transformer.xfmr4307442 buses=[node_oh4307441.3 node_xfmr4307442.3] xfmrcode=0-kva-1ph-ug 
new transformer.xfmr4307450 buses=[node_oh4307449.3 node_xfmr4307450.3] xfmrcode=0-kva-1ph-ug 
new transformer.xfmr4307465 buses=[node_oh4307464.3 node_xfmr4307465.3] xfmrcode=0-kva-1ph-ug 
new transformer.xfmr4307471 buses=[node_oh4307470.3 node_xfmr4307471.3] xfmrcode=0-kva-1ph-ug 
new transformer.xfmr4301476 buses=[node_oh4301475.3 node_xfmr4301476.3] xfmrcode=0-kva-1ph-ug 
new transformer.xfmr4301481 buses=[node_oh4301478.3 node_xfmr4301481.3] xfmrcode=0-kva-1ph-ug 
new transformer.xfmr4301484 buses=[node_oh4301482.3 node_xfmr4301484.3] xfmrcode=0-kva-1ph-ug 
new transformer.xfmr4300216 buses=[node_oh4301485.3 node_xfmr4300216.3] xfmrcode=0-kva-1ph-ug
new transformer.xfmr4301491 buses=[node_oh4301488.3 node_xfmr4301491.3] xfmrcode=0-kva-1ph-ug 
new transformer.xfmr4301493 buses=[node_oh4301492.3 node_xfmr4301493.3] xfmrcode=0-kva-1ph-ug 
new transformer.xfmr4300829 buses=[node_oh4307475.3 node_xfmr4300829.3] xfmrcode=10-kva-1ph 
new transformer.xfmr4300831 buses=[node_oh4307467.3 node_xfmr4300831.3] xfmrcode=0-kva-1ph-ug 
new transformer.xfmr4307455 buses=[node_oh4307454.3 node_xfmr4307455.3] xfmrcode=0-kva-1ph-ug 
new transformer.xfmr4307447 buses=[node_oh4307446.3 node_xfmr4307447.3] xfmrcode=0-kva-1ph-ug 
new transformer.xfmr21000113 buses=[node_oh21000112.3 node_xfmr21000113.3] xfmrcode=0-kva-1ph-ug 
new transformer.xfmr4300204 buses=[node_oh4301473.3 node_xfmr4300204.3] xfmrcode=0-kva-1ph-ug 
new transformer.xfmr4307431 buses=[node_oh4307430.3 node_xfmr4307431.3] xfmrcode=0-kva-1ph-ug 
new transformer.xfmr4307434 buses=[node_oh4307433.3 node_xfmr4307434.3] xfmrcode=0-kva-1ph-ug 
new transformer.xfmr4307417 buses=[node_oh4301456.3 node_xfmr4307417.3] xfmrcode=0-kva-1ph-ug 
new transformer.xfmr4307420 buses=[node_oh4307418.3 node_xfmr4307420.3] xfmrcode=0-kva-1ph-ug 
new transformer.xfmr4307414 buses=[node_oh4301451.3 node_xfmr4307414.3] xfmrcode=0-kva-1ph-ug 
new transformer.xfmr4307403 buses=[node_oh4301445.3 node_xfmr4307403.3] xfmrcode=0-kva-1ph-ug 
new transformer.xfmr4307405 buses=[node_oh4307398.3 node_xfmr4307405.3] xfmrcode=0-kva-1ph-ug 
new transformer.xfmr4307408 buses=[node_oh4307399.3 node_xfmr4307408.3] xfmrcode=0-kva-1ph-ug 
new transformer.xfmr4307410 buses=[node_oh4307401.3 node_xfmr4307410.3] xfmrcode=0-kva-1ph-ug 
new transformer.xfmr4307394 buses=[node_oh4300202.3 node_xfmr4307394.3] xfmrcode=0-kva-1ph-ug 
new transformer.xfmr4307397 buses=[node_oh4307395.3 node_xfmr4307397.3] xfmrcode=0-kva-1ph-ug 
new transformer.xfmr4301439 buses=[node_oh4301437.3 node_xfmr4301439.3] xfmrcode=0-kva-1ph-ug 
new transformer.xfmr4307384 buses=[node_oh4307383.3 node_xfmr4307384.3] xfmrcode=0-kva-1ph-ug 
new transformer.xfmr4307389 buses=[node_oh4307385.3 node_xfmr4307389.3] xfmrcode=0-kva-1ph-ug 
new transformer.xfmr4307392 buses=[node_oh4307390.3 node_xfmr4307392.3] xfmrcode=0-kva-1ph-ug 
new transformer.xfmr4303057 buses=[node_oh4303150.3 node_xfmr4303057.3] xfmrcode=0-kva-1ph-ug 
new transformer.xfmr4303058 buses=[node_oh4303151.3 node_xfmr4303058.3] xfmrcode=10-kva-1ph 
new transformer.xfmr4303059 buses=[node_oh4303153.3 node_xfmr4303059.3] xfmrcode=0-kva-1ph-ug 
new transformer.xfmr4307368 buses=[node_oh4301441.3 node_xfmr4307368.3] xfmrcode=0-kva-1ph-ug 
new transformer.xfmr4307370 buses=[node_oh4307367.3 node_xfmr4307370.3] xfmrcode=0-kva-1ph-ug 
new transformer.xfmr4307374 buses=[node_oh4307371.3 node_xfmr4307374.3] xfmrcode=0-kva-1ph-ug 
new transformer.xfmr4307377 buses=[node_oh4307376.3 node_xfmr4307377.3] xfmrcode=0-kva-1ph-ug 
new transformer.xfmr4307380 buses=[node_oh4307379.3 node_xfmr4307380.3] xfmrcode=0-kva-1ph-ug 
new transformer.xfmr4307339 buses=[node_oh4300192.3 node_xfmr4307339.3] xfmrcode=0-kva-1ph-ug 
new transformer.xfmr4307347 buses=[node_oh4307342.3 node_xfmr4307347.3] xfmrcode=0-kva-1ph-ug 
new transformer.xfmr4307330 buses=[node_oh4300190.3 node_xfmr4307330.3] xfmrcode=0-kva-1ph-ug 
new transformer.xfmr4307333 buses=[node_oh4307329.3 node_xfmr4307333.3] xfmrcode=0-kva-1ph-ug 
new transformer.xfmr4307328 buses=[node_oh4300185.3 node_xfmr4307328.3] xfmrcode=0-kva-1ph-ug 
new transformer.xfmr4301408 buses=[node_oh4301407.3 node_xfmr4301408.3] xfmrcode=0-kva-1ph-ug 
new transformer.xfmr4307326 buses=[node_oh4300182.3 node_xfmr4307326.3] xfmrcode=0-kva-1ph-ug 
new transformer.xfmr4307321 buses=[node_oh4300181.3 node_xfmr4307321.3] xfmrcode=0-kva-1ph-ug 
new transformer.xfmr4301380 buses=[node_oh4301379.3 node_xfmr4301380.3] xfmrcode=0-kva-1ph-ug 
new transformer.xfmr4300178 buses=[node_oh4301384.3 node_xfmr4300178.3] xfmrcode=0-kva-1ph-ug 
new transformer.xfmr4301374 buses=[node_oh4301373.3 node_xfmr4301374.3] xfmrcode=0-kva-1ph-ug 
new transformer.xfmr4301338 buses=[node_oh4301334.3 node_xfmr4301338.3] xfmrcode=0-kva-1ph-ug 
new transformer.xfmr4301324 buses=[node_oh4301321.2 node_xfmr4301324.2] xfmrcode=0-kva-1ph-ug 
new transformer.xfmr4300175 buses=[node_oh4301494.3 node_xfmr4300175.3] xfmrcode=0-kva-1ph-ug 
new transformer.xfmr4301360 buses=[node_oh4301358.2 node_xfmr4301360.2] xfmrcode=0-kva-1ph-ug 
new transformer.xfmr4300172 buses=[node_oh4300170.2 node_xfmr4300172.2] xfmrcode=0-kva-1ph-ug 
new transformer.xfmr4301293 buses=[node_oh4301278.1 node_xfmr4301293.1] xfmrcode=0-kva-1ph 
new transformer.xfmr4301283 buses=[node_oh4301281.1 node_xfmr4301283.1] xfmrcode=0-kva-1ph 
new transformer.xfmr4301258 buses=[node_oh4301253.1 node_xfmr4301258.1] xfmrcode=0-kva-1ph 
new transformer.xfmr4301260 buses=[node_oh4301255.1 node_xfmr4301260.1] xfmrcode=0-kva-1ph 
new transformer.xfmr4301264 buses=[node_oh4301262.1 node_xfmr4301264.1] xfmrcode=0-kva-1ph 
new transformer.xfmr4301520 buses=[node_oh4301143.2 node_xfmr4301520.2] xfmrcode=10-kva-1ph 
new transformer.xfmr4301151 buses=[node_oh4301149.2 node_xfmr4301151.2] xfmrcode=0-kva-1ph-ug 
new transformer.xfmr4301541 buses=[node_oh4300147.2 node_xfmr4301541.2] xfmrcode=10-kva-1ph 
new transformer.xfmr4301120 buses=[node_oh4301105.3 node_xfmr4301120.3] xfmrcode=0-kva-1ph-ug 
new transformer.xfmr4307823 buses=[node_oh4307821.1 node_xfmr4307823.1] xfmrcode=0-kva-1ph-ug 
new transformer.xfmr4307824 buses=[node_oh4307822.1 node_xfmr4307824.1] xfmrcode=0-kva-1ph 
new transformer.xfmr4301823 buses=[node_oh4301821.1 node_xfmr4301823.1] xfmrcode=0-kva-1ph 
new transformer.xfmr4301827 buses=[node_oh4301826.3 node_xfmr4301827.3] xfmrcode=0-kva-1ph-ug 
new transformer.xfmr4301848 buses=[node_oh4301847.3 node_xfmr4301848.3] xfmrcode=10-kva-1ph 
new transformer.xfmr4301854 buses=[node_oh4301853.3 node_xfmr4301854.3] xfmrcode=0-kva-1ph-ug 
new transformer.xfmr4301858 buses=[node_oh4301857.3 node_xfmr4301858.3] xfmrcode=0-kva-1ph-ug 
new transformer.xfmr4301864 buses=[node_oh4301863.1 node_xfmr4301864.1] xfmrcode=0-kva-1ph 
new transformer.xfmr4301869 buses=[node_oh4301868.3 node_xfmr4301869.3] xfmrcode=0-kva-1ph-ug 
new transformer.xfmr4301882 buses=[node_oh4301870.3 node_xfmr4301882.3] xfmrcode=0-kva-1ph-ug 
new transformer.xfmr4302606 buses=[node_oh4301910.1 node_xfmr4302606.1] xfmrcode=0-kva-1ph 
new transformer.xfmr4301964 buses=[node_oh4302616.3 node_xfmr4301964.3] xfmrcode=0-kva-1ph-ug 
new transformer.xfmr4301977 buses=[node_oh4302610.3 node_xfmr4301977.3] xfmrcode=0-kva-1ph-ug 
new transformer.xfmr4301983 buses=[node_oh4301982.3 node_xfmr4301983.3] xfmrcode=0-kva-1ph-ug 
new transformer.xfmr4302009 buses=[node_oh4302007.3 node_xfmr4302009.3] xfmrcode=0-kva-1ph-ug 
new transformer.xfmr4302018 buses=[node_oh4302014.3 node_xfmr4302018.3] xfmrcode=0-kva-1ph-ug 
new transformer.xfmr4300048 buses=[node_oh4302015.3 node_xfmr4300048.3] xfmrcode=0-kva-1ph-ug 
new transformer.xfmr4300051 buses=[node_oh4302022.3 node_xfmr4300051.3] xfmrcode=0-kva-1ph-ug 
new transformer.xfmr4301553 buses=[node_oh4301552.3 node_xfmr4301553.3] xfmrcode=0-kva-1ph-ug 
new transformer.xfmr4300052 buses=[node_oh4302021.3 node_xfmr4300052.3] xfmrcode=0-kva-1ph-ug 
new transformer.xfmr4303015 buses=[node_oh4302024.3 node_xfmr4303015.3] xfmrcode=0-kva-1ph-ug 
new transformer.xfmr4302028 buses=[node_oh4302025.3 node_xfmr4302028.3] xfmrcode=0-kva-1ph-ug 
new transformer.xfmr4300053 buses=[node_oh4302029.3 node_xfmr4300053.3] xfmrcode=0-kva-1ph-ug 
new transformer.xfmr4302041 buses=[node_oh4302040.3 node_xfmr4302041.3] xfmrcode=0-kva-1ph-ug 
new transformer.xfmr4302045 buses=[node_oh4302036.3 node_xfmr4302045.3] xfmrcode=0-kva-1ph-ug 
new transformer.xfmr4303016 buses=[node_oh4301576.3 node_xfmr4303016.3] xfmrcode=0-kva-1ph-ug 
...
!new transformer.t3660007 buses=[node_313367501.3 node_t3660007.3] xfmrcode=0-kva-1ph-ug 
