files/ojo_caliente/ojo_caliente_EXP_VOLTAGES.CSV
Bus, BasekV, Node1, Magnitude1, Angle1, pu1, Node2, Magnitude2, Angle2, pu2, Node3, Magnitude3, Angle3, pu3
"MAIN_NODE", 12.47, 1,     7415.5,    0.0,      1.03, 2,    7415.57, -120.0,      1.03, 3,    7415.47,  120.0,      1.03
"NODE_ROOT", 12.47, 1,    7415.47,    0.0,      1.03, 2,    7415.56, -120.0,      1.03, 3,    7415.42,  120.0,      1.03
"NODE_EL_RITO", 12.47, 1,    7415.44,    0.0,      1.03, 2,    7415.55, -120.0,      1.03, 3,    7415.35,  120.0,      1.03
"NODE_UG4303156", 12.47, 1,    7416.27,    0.0,    1.0301, 2,    7414.92, -120.0,    1.0299, 3,     7414.6,  120.0,    1.0299
"NODE_OCD21000118", 12.47, 1,    7431.51,   -0.1,    1.0322, 2,    7399.63, -119.9,    1.0278, 3,    7364.76,  119.5,    1.0229
"NODE_UG21000121", 12.47, 1,    7432.03,   -0.1,    1.0323, 2,    7399.17, -119.9,    1.0277, 3,     7363.8,  119.5,    1.0228
"NODE_OCD21000120", 12.47, 1,    7432.03,   -0.1,    1.0323, 2,    7399.17, -119.9,    1.0277, 3,    7363.78,  119.5,    1.0228
"NODE_UG21000123", 12.47, 1,    7432.69,   -0.1,    1.0324, 2,     7398.6, -119.9,    1.0276, 3,    7362.56,  119.5,    1.0226
"NODE_OCD21000122", 12.47, 1,    7432.69,   -0.1,    1.0324, 2,     7398.6, -119.9,    1.0276, 3,    7362.55,  119.5,    1.0226
"NODE_UG21000124", 12.47, 1,     7433.3,   -0.1,    1.0325, 2,    7398.07, -119.9,    1.0276, 3,    7361.42,  119.5,    1.0225
"NODE_63232-63900-CP571127447", 12.47, 1,    7440.58,   -0.1,    1.0335, 2,    7387.75, -119.8,    1.0261, 3,    7320.39,  119.2,    1.0168
"NODE_OH4301347", 12.47, 1,     7440.9,   -0.1,    1.0335, 2,    7387.28, -119.8,    1.0261, 3,    7318.53,  119.2,    1.0165
"NODE_OH4301053", 12.47, 1,    7470.26,   -0.2,    1.0376, 2,    7342.42, -119.6,    1.0198, 3,    7148.04,  118.1,   0.99284
"NODE_OH4301105", 12.47, 3,    7148.04,  118.1,   0.99284, 0, 0, 0, 0, 0, 0, 0, 0
"NODE_64044-CP571113943-56704", 12.47, 1,    7470.26,   -0.2,    1.0376, 2,    7342.42, -119.6,    1.0198, 3,    7148.03,  118.1,   0.99284
"NODE_OH4301124", 12.47, 1,    7470.33,   -0.2,    1.0376, 2,    7342.31, -119.6,    1.0198, 3,    7147.87,  118.1,   0.99282
"NODE_OCD4300153", 12.47, 1,     7471.6,   -0.2,    1.0378, 0, 0, 0, 0, 0, 0, 0, 0
"NODE_UG4301286", 12.47, 1,     7471.6,   -0.2,    1.0378, 0, 0, 0, 0, 0, 0, 0, 0
"NODE_OCD4307480", 12.47, 3,    7133.81,  118.0,   0.99087, 0, 0, 0, 0, 0, 0, 0, 0
"NODE_UG4307481", 12.47, 3,    7133.81,  118.0,   0.99087, 0, 0, 0, 0, 0, 0, 0, 0
"NODE_OH4307466", 12.47, 3,    7133.96,  118.0,   0.99089, 0, 0, 0, 0, 0, 0, 0, 0
"NODE_OH4307470", 12.47, 3,    7133.91,  118.0,   0.99088, 0, 0, 0, 0, 0, 0, 0, 0
"NODE_OCD4307468", 12.47, 3,    7133.96,  118.0,   0.99089, 0, 0, 0, 0, 0, 0, 0, 0
"NODE_OH4307467", 12.47, 3,    7133.57,  118.0,   0.99083, 0, 0, 0, 0, 0, 0, 0, 0
"NODE_OCD4303060", 12.47, 3,    7133.37,  118.0,   0.99081, 0, 0, 0, 0, 0, 0, 0, 0
"NODE_UG_3_32_15_3_2", 12.47, 3,       7133,  118.0,   0.99076, 0, 0, 0, 0, 0, 0, 0, 0
"NODE_UG_3_32_15_3_0001", 12.47, 3,    7132.98,  118.0,   0.99075, 0, 0, 0, 0, 0, 0, 0, 0
"NODE_UG_3_32_15_1_0001", 12.47, 3,    7132.91,  118.0,   0.99074, 0, 0, 0, 0, 0, 0, 0, 0
"NODE_UG_3_32_15_3_0002", 12.47, 3,       7133,  118.0,   0.99075, 0, 0, 0, 0, 0, 0, 0, 0
"NODE_UG_3_32_15_3_0004", 12.47, 3,    7132.96,  118.0,   0.99075, 0, 0, 0, 0, 0, 0, 0, 0
"NODE_OH4301470", 12.47, 3,    7137.01,  118.0,   0.99131, 0, 0, 0, 0, 0, 0, 0, 0
"NODE_OH4307435", 12.47, 3,    7136.71,  118.0,   0.99127, 0, 0, 0, 0, 0, 0, 0, 0
"NODE_OH4301473", 12.47, 3,    7137.01,  118.0,   0.99131, 0, 0, 0, 0, 0, 0, 0, 0
"NODE_OCD4300203", 12.47, 3,    7137.01,  118.0,   0.99131, 0, 0, 0, 0, 0, 0, 0, 0
"NODE_OH4307429", 12.47, 3,    7137.02,  118.0,   0.99131, 0, 0, 0, 0, 0, 0, 0, 0
"NODE_OH4303146", 12.47, 3,    7137.82,  118.0,   0.99143, 0, 0, 0, 0, 0, 0, 0, 0
"NODE_OH4303149", 12.47, 3,    7137.75,  118.0,   0.99141, 0, 0, 0, 0, 0, 0, 0, 0
"NODE_OCD4303056", 12.47, 3,    7137.82,  118.0,   0.99143, 0, 0, 0, 0, 0, 0, 0, 0
"NODE_UG4303147", 12.47, 3,    7137.82,  118.0,   0.99143, 0, 0, 0, 0, 0, 0, 0, 0
"NODE_OCD4307352", 12.47, 3,    7139.14,  118.0,   0.99161, 0, 0, 0, 0, 0, 0, 0, 0
"NODE_UG4307353", 12.47, 3,    7139.14,  118.0,   0.99161, 0, 0, 0, 0, 0, 0, 0, 0
"NODE_OCD4300174", 12.47, 2,    7339.76, -119.6,    1.0195, 0, 0, 0, 0, 0, 0, 0, 0
"NODE_UG4301579", 12.47, 2,    7339.75, -119.6,    1.0195, 0, 0, 0, 0, 0, 0, 0, 0
"NODE_OH4301581", 12.47, 2,    7339.85, -119.6,    1.0195, 0, 0, 0, 0, 0, 0, 0, 0
"NODE_OH4303903", 12.47, 2,    7339.85, -119.6,    1.0195, 0, 0, 0, 0, 0, 0, 0, 0
"NODE_UG4303904", 12.47, 2,    7339.85, -119.6,    1.0195, 0, 0, 0, 0, 0, 0, 0, 0
"NODE_OH4301247", 12.47, 1,    7471.24,   -0.2,    1.0377, 2,    7341.28, -119.6,    1.0197, 3,    7146.07,  118.1,   0.99257
"NODE_OH4301248", 12.47, 1,    7471.27,   -0.2,    1.0377, 2,    7341.25, -119.6,    1.0197, 3,       7146,  118.1,   0.99256
"NODE_OCD4300150", 12.47, 3,    7146.07,  118.1,   0.99257, 0, 0, 0, 0, 0, 0, 0, 0
"NODE_UG4301249", 12.47, 3,    7145.96,  118.1,   0.99256, 0, 0, 0, 0, 0, 0, 0, 0
"NODE_OCD4300055", 12.47, 3,    7147.19,  118.1,   0.99273, 0, 0, 0, 0, 0, 0, 0, 0
"NODE_UG4301169", 12.47, 3,    7147.14,  118.1,   0.99272, 0, 0, 0, 0, 0, 0, 0, 0
"NODE_OH4301884", 12.47, 1,    7467.92,   -0.2,    1.0373, 2,    7342.96, -119.6,    1.0199, 3,     7145.8,  118.1,   0.99253
"NODE_OH4301886", 12.47, 1,    7467.84,   -0.2,    1.0373, 2,    7342.98, -119.6,    1.0199, 3,    7145.78,  118.1,   0.99253
"NODE_OCD4302602", 12.47, 1,    7467.92,   -0.2,    1.0373, 2,    7342.96, -119.6,    1.0199, 3,     7145.8,  118.1,   0.99253
"NODE_UG4301885", 12.47, 1,    7467.92,   -0.2,    1.0373, 2,    7342.96, -119.6,    1.0199, 3,     7145.8,  118.1,   0.99253
"NODE_OH4301915", 12.47, 1,    7467.85,   -0.2,    1.0373, 2,    7342.99, -119.6,    1.0199, 3,    7145.81,  118.1,   0.99253
"NODE_OH4301926", 12.47, 1,    7467.85,   -0.2,    1.0373, 2,    7342.99, -119.6,    1.0199, 3,    7145.82,  118.1,   0.99254
"NODE_OCD4308022", 12.47, 1,    7467.85,   -0.2,    1.0373, 2,    7342.99, -119.6,    1.0199, 3,    7145.81,  118.1,   0.99253
"NODE_UG4301916", 12.47, 1,    7467.85,   -0.2,    1.0373, 2,    7342.99, -119.6,    1.0199, 3,    7145.81,  118.1,   0.99253
"NODE_OCD4300047", 12.47, 1,    7467.85,   -0.2,    1.0373, 2,    7342.99, -119.6,    1.0199, 3,    7145.82,  118.1,   0.99254
"NODE_UG4301973", 12.47, 1,    7467.85,   -0.2,    1.0373, 2,    7342.99, -119.6,    1.0199, 3,    7145.82,  118.1,   0.99254
"NODE_OH4302612", 12.47, 2,       7343, -119.6,    1.0199, 3,    7145.83,  118.1,   0.99254, 0, 0, 0, 0
"NODE_OH4300203", 12.47, 2,       7343, -119.6,    1.0199, 0, 0, 0, 0, 0, 0, 0, 0
"NODE_OCD4303894", 12.47, 3,    7145.83,  118.1,   0.99254, 0, 0, 0, 0, 0, 0, 0, 0
"NODE_OH4301574", 12.47, 3,    7145.84,  118.1,   0.99254, 0, 0, 0, 0, 0, 0, 0, 0
"NODE_OCD4303895", 12.47, 2,       7343, -119.6,    1.0199, 0, 0, 0, 0, 0, 0, 0, 0
"NODE_UG4303896", 12.47, 2,       7343, -119.6,    1.0199, 0, 0, 0, 0, 0, 0, 0, 0
"NODE_OH4302609", 12.47, 1,    7467.85,   -0.2,    1.0373, 2,       7343, -119.6,    1.0199, 3,    7145.82,  118.1,   0.99254
"NODE_OH4302611", 12.47, 3,    7145.82,  118.1,   0.99254, 0, 0, 0, 0, 0, 0, 0, 0
"NODE_OH4302610", 12.47, 1,    7467.85,   -0.2,    1.0373, 2,       7343, -119.6,    1.0199, 3,    7145.82,  118.1,   0.99254
"NODE_OH4301961", 12.47, 1,    7467.85,   -0.2,    1.0373, 2,       7343, -119.6,    1.0199, 3,    7145.82,  118.1,   0.99254
"NODE_OCD4302743", 12.47, 1,    7467.85,   -0.2,    1.0373, 2,       7343, -119.6,    1.0199, 3,    7145.82,  118.1,   0.99254
"NODE_UG4301966", 12.47, 1,    7467.85,   -0.2,    1.0373, 2,       7343, -119.6,    1.0199, 3,    7145.82,  118.1,   0.99254
"NODE_OCD4302623", 12.47, 3,    7145.82,  118.1,   0.99254, 0, 0, 0, 0, 0, 0, 0, 0
"NODE_OH4301934", 12.47, 3,    7145.82,  118.1,   0.99254, 0, 0, 0, 0, 0, 0, 0, 0
"NODE_OCD4302603", 12.47, 1,    7467.65,   -0.2,    1.0372, 2,    7343.01, -119.6,    1.0199, 3,    7145.72,  118.1,   0.99252
"NODE_UG4301555", 12.47, 1,    7467.64,   -0.2,    1.0372, 2,       7343, -119.6,    1.0199, 3,    7145.72,  118.1,   0.99252
"NODE_OH4301033", 12.47, 3,    7147.84,  118.1,   0.99282, 0, 0, 0, 0, 0, 0, 0, 0
"NODE_OH4301036", 12.47, 3,    7146.46,  118.1,   0.99263, 0, 0, 0, 0, 0, 0, 0, 0
"NODE_OCD4302594", 12.47, 3,    7129.05,  118.0,   0.99021, 0, 0, 0, 0, 0, 0, 0, 0
"NODE_UG4301105", 12.47, 3,    7129.05,  118.0,   0.99021, 0, 0, 0, 0, 0, 0, 0, 0
"NODE_OH4301111", 12.47, 3,    7127.21,  118.0,   0.98995, 0, 0, 0, 0, 0, 0, 0, 0
"NODE_OH4301121", 12.47, 3,     7127.1,  118.0,   0.98994, 0, 0, 0, 0, 0, 0, 0, 0
"NODE_OCD4302595", 12.47, 3,     7127.2,  118.0,   0.98995, 0, 0, 0, 0, 0, 0, 0, 0
"NODE_UG4301119", 12.47, 3,    7127.17,  118.0,   0.98994, 0, 0, 0, 0, 0, 0, 0, 0
"NODE_OCD4302596", 12.47, 3,    7126.88,  118.0,   0.98991, 0, 0, 0, 0, 0, 0, 0, 0
"NODE_UG4301124", 12.47, 3,    7126.86,  118.0,    0.9899, 0, 0, 0, 0, 0, 0, 0, 0
"NODE_OCD4307828", 12.47, 3,    7127.15,  118.0,   0.98994, 0, 0, 0, 0, 0, 0, 0, 0
"NODE_UG4301154", 12.47, 3,    7127.15,  118.0,   0.98994, 0, 0, 0, 0, 0, 0, 0, 0
"NODE_OH4301505", 12.47, 1,    7467.95,   -0.2,    1.0373, 0, 0, 0, 0, 0, 0, 0, 0
"NODE_OH4301514", 12.47, 1,    7467.95,   -0.2,    1.0373, 0, 0, 0, 0, 0, 0, 0, 0
"NODE_OCD4303004", 12.47, 1,    7467.95,   -0.2,    1.0373, 0, 0, 0, 0, 0, 0, 0, 0
"NODE_UG4301524", 12.47, 1,    7467.79,   -0.2,    1.0373, 0, 0, 0, 0, 0, 0, 0, 0
"NODE_CARSON", 12.47, 1,    7415.44,    0.0,      1.03, 2,    7415.55, -120.0,      1.03, 3,    7415.35,  120.0,      1.03
"NODE_OH3610020", 12.47, 1,    7415.69,    0.0,      1.03, 2,    7415.37, -120.0,      1.03, 3,    7415.23,  120.0,      1.03
"NODE_53350-104069-153355", 12.47, 1,    7451.14,   -0.1,    1.0349, 2,     7379.3, -119.8,     1.025, 3,    7315.15,  118.9,    1.0161
"NODE_OH3540068", 12.47, 1,    7451.28,   -0.1,     1.035, 2,    7379.08, -119.8,    1.0249, 3,    7314.39,  118.9,    1.0159
"NODE_71332", 12.47, 3,    7227.77,  118.3,    1.0039, 0, 0, 0, 0, 0, 0, 0, 0
"NODE_OH3570075", 12.47, 3,    7227.76,  118.3,    1.0039, 0, 0, 0, 0, 0, 0, 0, 0
"NODE_OH3570055", 12.47, 1,    7472.81,   -0.1,     1.038, 2,    7347.93, -119.7,    1.0206, 3,    7228.02,  118.3,     1.004
"NODE_OH3570056", 12.47, 1,    7472.78,   -0.1,    1.0379, 2,    7347.86, -119.7,    1.0206, 3,     7227.9,  118.3,    1.0039
"NODE_3570005", 12.47, 2,    7347.93, -119.7,    1.0206, 0, 0, 0, 0, 0, 0, 0, 0
"NODE_UG3570004", 12.47, 2,    7347.75, -119.7,    1.0206, 0, 0, 0, 0, 0, 0, 0, 0
"NODE_OH3570008", 12.47, 1,    7473.35,   -0.1,     1.038, 2,    7349.43, -119.7,    1.0208, 3,    7228.98,  118.3,    1.0041
"NODE_OH3570044", 12.47, 1,     7473.3,   -0.1,     1.038, 2,    7349.28, -119.7,    1.0208, 3,    7228.88,  118.3,    1.0041
"NODE_57205", 12.47, 3,    7228.97,  118.3,    1.0041, 0, 0, 0, 0, 0, 0, 0, 0
"NODE_OH3570016", 12.47, 3,    7228.89,  118.3,    1.0041, 0, 0, 0, 0, 0, 0, 0, 0
"NODE_OH3570092", 12.47, 3,    7220.87,  118.1,     1.003, 0, 0, 0, 0, 0, 0, 0, 0
"NODE_OH3570093", 12.47, 3,     7220.5,  118.1,    1.0029, 0, 0, 0, 0, 0, 0, 0, 0
"NODE_3670001", 12.47, 3,    7218.88,  118.1,    1.0027, 0, 0, 0, 0, 0, 0, 0, 0
"NODE_OH3670002", 12.47, 3,    7218.61,  118.1,    1.0026, 0, 0, 0, 0, 0, 0, 0, 0
"NODE_3670002", 12.47, 3,    7217.72,  118.1,    1.0025, 0, 0, 0, 0, 0, 0, 0, 0
"NODE_OH3670010", 12.47, 3,    7217.54,  118.1,    1.0025, 0, 0, 0, 0, 0, 0, 0, 0
"NODE_OH3670035", 12.47, 3,    7214.86,  118.0,    1.0021, 0, 0, 0, 0, 0, 0, 0, 0
"NODE_OH3670037", 12.47, 3,    7214.56,  118.0,    1.0021, 0, 0, 0, 0, 0, 0, 0, 0
"NODE_3670007", 12.47, 3,    7214.86,  118.0,    1.0021, 0, 0, 0, 0, 0, 0, 0, 0
"NODE_OH3670036", 12.47, 3,    7214.87,  118.0,    1.0021, 0, 0, 0, 0, 0, 0, 0, 0
"NODE_3770004", 12.47, 3,    7209.41,  117.9,    1.0014, 0, 0, 0, 0, 0, 0, 0, 0
"NODE_UG3770002", 12.47, 3,    7209.41,  117.9,    1.0014, 0, 0, 0, 0, 0, 0, 0, 0
"NODE_3770005", 12.47, 3,    7207.17,  117.9,    1.0011, 0, 0, 0, 0, 0, 0, 0, 0
"NODE_UG3770004", 12.47, 3,    7207.12,  117.9,     1.001, 0, 0, 0, 0, 0, 0, 0, 0
"NODE_OH3770035", 12.47, 3,     7208.1,  117.9,    1.0012, 0, 0, 0, 0, 0, 0, 0, 0
"NODE_OH3770039", 12.47, 3,     7208.1,  117.9,    1.0012, 0, 0, 0, 0, 0, 0, 0, 0
"NODE_OH3770040", 12.47, 3,    7207.88,  117.9,    1.0012, 0, 0, 0, 0, 0, 0, 0, 0
"NODE_3770003", 12.47, 3,     7208.1,  117.9,    1.0012, 0, 0, 0, 0, 0, 0, 0, 0
"NODE_UG3770001", 12.47, 3,    7208.06,  117.9,    1.0012, 0, 0, 0, 0, 0, 0, 0, 0
"NODE_OH3670038", 12.47, 3,    7214.29,  118.0,     1.002, 0, 0, 0, 0, 0, 0, 0, 0
"NODE_OH3670039", 12.47, 3,    7214.01,  118.0,     1.002, 0, 0, 0, 0, 0, 0, 0, 0
"NODE_3670008", 12.47, 3,    7214.29,  118.0,     1.002, 0, 0, 0, 0, 0, 0, 0, 0
"NODE_UG3670003", 12.47, 3,    7214.06,  118.0,     1.002, 0, 0, 0, 0, 0, 0, 0, 0
"NODE_OH3670033", 12.47, 3,    7215.25,  118.0,    1.0022, 0, 0, 0, 0, 0, 0, 0, 0
"NODE_OH3670034", 12.47, 3,    7215.15,  118.0,    1.0022, 0, 0, 0, 0, 0, 0, 0, 0
"NODE_3670006", 12.47, 3,    7215.25,  118.0,    1.0022, 0, 0, 0, 0, 0, 0, 0, 0
"NODE_UG3670001", 12.47, 3,    7215.25,  118.0,    1.0022, 0, 0, 0, 0, 0, 0, 0, 0
"NODE_OH3670021", 12.47, 3,    7216.38,  118.0,    1.0023, 0, 0, 0, 0, 0, 0, 0, 0
"NODE_OH3670051", 12.47, 3,    7216.08,  118.0,    1.0023, 0, 0, 0, 0, 0, 0, 0, 0
"NODE_3670005", 12.47, 3,    7216.38,  118.0,    1.0023, 0, 0, 0, 0, 0, 0, 0, 0
"NODE_OH3670023", 12.47, 3,    7216.38,  118.0,    1.0023, 0, 0, 0, 0, 0, 0, 0, 0
"NODE_3660001", 12.47, 3,    7216.39,  118.0,    1.0023, 0, 0, 0, 0, 0, 0, 0, 0
"NODE_UG3660001", 12.47, 3,    7216.39,  118.0,    1.0023, 0, 0, 0, 0, 0, 0, 0, 0
"NODE_3670004", 12.47, 3,    7216.38,  118.0,    1.0023, 0, 0, 0, 0, 0, 0, 0, 0
"NODE_OH3670022", 12.47, 3,    7216.38,  118.0,    1.0023, 0, 0, 0, 0, 0, 0, 0, 0
"NODE_OH3670014", 12.47, 3,    7217.11,  118.0,    1.0024, 0, 0, 0, 0, 0, 0, 0, 0
"NODE_OH3670016", 12.47, 3,    7216.76,  118.0,    1.0024, 0, 0, 0, 0, 0, 0, 0, 0
"NODE_OH3570040", 12.47, 3,     7219.4,  118.1,    1.0028, 0, 0, 0, 0, 0, 0, 0, 0
"NODE_OH3570042", 12.47, 3,    7219.27,  118.1,    1.0027, 0, 0, 0, 0, 0, 0, 0, 0
"NODE_3570008", 12.47, 3,     7219.4,  118.1,    1.0028, 0, 0, 0, 0, 0, 0, 0, 0
"NODE_OH3570095", 12.47, 3,    7219.38,  118.1,    1.0028, 0, 0, 0, 0, 0, 0, 0, 0
"NODE_3570007", 12.47, 3,    7219.68,  118.1,    1.0028, 0, 0, 0, 0, 0, 0, 0, 0
"NODE_UG3570003", 12.47, 3,    7219.68,  118.1,    1.0028, 0, 0, 0, 0, 0, 0, 0, 0
"NODE_OH3570030", 12.47, 3,    7221.78,  118.1,    1.0031, 0, 0, 0, 0, 0, 0, 0, 0
"NODE_OH3570035", 12.47, 3,    7221.32,  118.1,     1.003, 0, 0, 0, 0, 0, 0, 0, 0
"NODE_3570006", 12.47, 3,    7221.78,  118.1,    1.0031, 0, 0, 0, 0, 0, 0, 0, 0
"NODE_OH3570032", 12.47, 3,    7221.78,  118.1,    1.0031, 0, 0, 0, 0, 0, 0, 0, 0
"NODE_OH3570031", 12.47, 3,     7221.7,  118.1,    1.0031, 0, 0, 0, 0, 0, 0, 0, 0
"NODE_OH3560022", 12.47, 3,    7221.12,  118.1,     1.003, 0, 0, 0, 0, 0, 0, 0, 0
"NODE_OH3560001", 12.47, 3,    7221.08,  118.1,     1.003, 0, 0, 0, 0, 0, 0, 0, 0
"NODE_3560001", 12.47, 3,    7221.12,  118.1,     1.003, 0, 0, 0, 0, 0, 0, 0, 0
"NODE_UG3560001", 12.47, 3,    7220.97,  118.1,     1.003, 0, 0, 0, 0, 0, 0, 0, 0
"NODE_3560002", 12.47, 3,    7221.06,  118.1,     1.003, 0, 0, 0, 0, 0, 0, 0, 0
"NODE_UG3560003", 12.47, 3,    7221.03,  118.1,     1.003, 0, 0, 0, 0, 0, 0, 0, 0
"NODE_OH3570006", 12.47, 1,     7473.2,   -0.1,     1.038, 2,    7349.63, -119.7,    1.0208, 3,    7229.49,  118.3,    1.0042
"NODE_3570001", 12.47, 1,     7473.2,   -0.1,     1.038, 0, 0, 0, 0, 0, 0, 0, 0
"NODE_OH3570007", 12.47, 1,    7473.19,   -0.1,     1.038, 0, 0, 0, 0, 0, 0, 0, 0
"NODE_OH3570013", 12.47, 1,    7473.11,   -0.1,     1.038, 0, 0, 0, 0, 0, 0, 0, 0
"NODE_OH3570014", 12.47, 1,    7473.12,   -0.1,     1.038, 0, 0, 0, 0, 0, 0, 0, 0
"NODE_3570003", 12.47, 1,    7473.11,   -0.1,     1.038, 0, 0, 0, 0, 0, 0, 0, 0
"NODE_UG3570002", 12.47, 1,    7473.06,   -0.1,     1.038, 0, 0, 0, 0, 0, 0, 0, 0
"NODE_OH3570010", 12.47, 1,    7473.16,   -0.1,     1.038, 0, 0, 0, 0, 0, 0, 0, 0
"NODE_OH3570011", 12.47, 1,    7473.15,   -0.1,     1.038, 0, 0, 0, 0, 0, 0, 0, 0
"NODE_3570002", 12.47, 1,    7473.16,   -0.1,     1.038, 0, 0, 0, 0, 0, 0, 0, 0
"NODE_UG3570001", 12.47, 1,    7473.16,   -0.1,     1.038, 0, 0, 0, 0, 0, 0, 0, 0
"NODE_OH3540036", 12.47, 1,    7452.69,   -0.1,    1.0352, 2,    7377.16, -119.8,    1.0247, 3,    7308.37,  118.9,    1.0151
"NODE_OH3540063", 12.47, 1,    7453.12,   -0.1,    1.0352, 2,    7376.61, -119.8,    1.0246, 3,    7306.77,  118.9,    1.0149
"NODE_3540003", 12.47, 3,    7308.37,  118.9,    1.0151, 0, 0, 0, 0, 0, 0, 0, 0
"NODE_OH3540037", 12.47, 3,    7308.35,  118.9,    1.0151, 0, 0, 0, 0, 0, 0, 0, 0
"NODE_OH3540030", 12.47, 1,    7449.82,   -0.1,    1.0348, 2,     7379.5, -119.8,     1.025, 3,    7311.21,  118.9,    1.0155
"NODE_OH3540001", 12.47, 1,    7449.82,   -0.1,    1.0348, 2,     7379.5, -119.8,     1.025, 3,    7311.21,  118.9,    1.0155
"NODE_3540002", 12.47, 1,    7449.82,   -0.1,    1.0348, 0, 0, 0, 0, 0, 0, 0, 0
"NODE_UG3540001", 12.47, 1,    7449.75,   -0.1,    1.0348, 0, 0, 0, 0, 0, 0, 0, 0
"NODE_OH3540026", 12.47, 1,    7450.22,   -0.1,    1.0348, 2,    7379.29, -119.8,     1.025, 3,    7311.32,  118.9,    1.0155
"NODE_OH3540027", 12.47, 1,    7450.11,   -0.1,    1.0348, 2,    7379.35, -119.8,     1.025, 3,    7311.29,  118.9,    1.0155
"NODE_OH3530008", 12.47, 3,    7361.05,  119.4,    1.0224, 0, 0, 0, 0, 0, 0, 0, 0
"NODE_OH3530009", 12.47, 3,    7361.05,  119.4,    1.0224, 0, 0, 0, 0, 0, 0, 0, 0
"NODE_3530002", 12.47, 3,    7361.05,  119.4,    1.0224, 0, 0, 0, 0, 0, 0, 0, 0
"NODE_UG3630001", 12.47, 3,    7361.05,  119.4,    1.0224, 0, 0, 0, 0, 0, 0, 0, 0
"NODE_3620001", 12.47, 3,    7361.02,  119.4,    1.0224, 0, 0, 0, 0, 0, 0, 0, 0
"NODE_UG3620001", 12.47, 3,    7361.03,  119.4,    1.0224, 0, 0, 0, 0, 0, 0, 0, 0
"NODE_OH3520049", 12.47, 3,    7361.01,  119.4,    1.0224, 0, 0, 0, 0, 0, 0, 0, 0
"NODE_OH3520002", 12.47, 3,    7361.01,  119.4,    1.0224, 0, 0, 0, 0, 0, 0, 0, 0
"NODE_3520001", 12.47, 3,    7361.01,  119.4,    1.0224, 0, 0, 0, 0, 0, 0, 0, 0
"NODE_UG3620002", 12.47, 3,    7361.01,  119.4,    1.0224, 0, 0, 0, 0, 0, 0, 0, 0
"NODE_OH3530002", 12.47, 3,    7361.06,  119.4,    1.0224, 0, 0, 0, 0, 0, 0, 0, 0
"NODE_OH3530003", 12.47, 3,    7361.04,  119.4,    1.0224, 0, 0, 0, 0, 0, 0, 0, 0
"NODE_3530001", 12.47, 3,    7361.06,  119.4,    1.0224, 0, 0, 0, 0, 0, 0, 0, 0
"NODE_UG3530001", 12.47, 3,    7361.06,  119.4,    1.0224, 0, 0, 0, 0, 0, 0, 0, 0
"NODE_FUSE_PREFIX_3_45_14_1_000", 12.47, 1,    7416.23,    0.0,    1.0301, 2,    7414.75, -120.0,    1.0299, 3,    7413.12,  120.0,    1.0297
"NODE_UG_3_45_13_2_0001", 12.47, 1,    7416.23,    0.0,    1.0301, 2,    7414.75, -120.0,    1.0299, 3,    7413.12,  120.0,    1.0297
"NODE_UG_3_45_13_2_0002", 12.47, 1,    7416.23,    0.0,    1.0301, 2,    7414.75, -120.0,    1.0299, 3,    7413.12,  120.0,    1.0297
"NODE_OH_3_45_14_1_0001", 12.47, 1,    7416.26,    0.0,    1.0301, 2,    7414.74, -120.0,    1.0299, 3,    7413.13,  120.0,    1.0297
"NODE_OH_3_45_14_1_0004", 12.47, 1,    7416.24,    0.0,    1.0301, 2,    7414.74, -120.0,    1.0299, 3,    7413.13,  120.0,    1.0297
"NODE_FUSE_PREFIX_3_45_14_3_000", 12.47, 1,    7416.26,    0.0,    1.0301, 2,    7414.74, -120.0,    1.0299, 3,    7413.13,  120.0,    1.0297
"NODE_UG_3_45_13_4_0001", 12.47, 1,    7416.26,    0.0,    1.0301, 2,    7414.73, -120.0,    1.0299, 3,    7413.13,  120.0,    1.0297
"NODE_BAY_OJO_CALIENTE", 12.47, 1,    7415.43,    0.0,      1.03, 2,    7415.55, -120.0,      1.03, 3,    7415.35,  120.0,      1.03
"NODE_OH4300184", 12.47, 1,    7415.53,    0.0,      1.03, 2,    7415.24, -120.0,      1.03, 3,    7415.09,  120.0,    1.0299
"NODE_108723-571106722-57108724", 12.47, 1,    7417.27,   -0.1,    1.0302, 2,    7372.12, -120.1,     1.024, 3,    7358.83,  119.4,    1.0221
"NODE_OH4302736", 12.47, 1,    7417.29,   -0.1,    1.0302, 2,    7371.82, -120.1,    1.0239, 3,    7358.47,  119.4,    1.0221
"NODE_OCD4302585", 12.47, 3,    7356.96,  119.4,    1.0219, 0, 0, 0, 0, 0, 0, 0, 0
"NODE_UG4300512", 12.47, 3,    7356.96,  119.4,    1.0219, 0, 0, 0, 0, 0, 0, 0, 0
"NODE_OCD4302981", 12.47, 2,    7368.01, -120.1,    1.0234, 0, 0, 0, 0, 0, 0, 0, 0
"NODE_UG4303117", 12.47, 2,    7367.99, -120.1,    1.0234, 0, 0, 0, 0, 0, 0, 0, 0
"NODE_OH4303789", 12.47, 1,    7420.19,   -0.1,    1.0306, 2,    7366.97, -120.1,    1.0233, 3,     7352.5,  119.4,    1.0212
"NODE_OH4303796", 12.47, 3,     7352.5,  119.4,    1.0212, 0, 0, 0, 0, 0, 0, 0, 0
"NODE_OH4303795", 12.47, 1,    7420.25,   -0.1,    1.0307, 2,    7366.92, -120.1,    1.0232, 3,     7352.4,  119.4,    1.0212
"NODE_OCD4303792", 12.47, 3,     7352.5,  119.4,    1.0212, 0, 0, 0, 0, 0, 0, 0, 0
"NODE_UG4303793", 12.47, 3,     7352.5,  119.4,    1.0212, 0, 0, 0, 0, 0, 0, 0, 0
"NODE_OH4303122", 12.47, 3,    7352.21,  119.4,    1.0212, 0, 0, 0, 0, 0, 0, 0, 0
"NODE_OH4300599", 12.47, 3,    7352.01,  119.4,    1.0212, 0, 0, 0, 0, 0, 0, 0, 0
"NODE_OH4303886", 12.47, 3,     7346.9,  119.3,    1.0205, 0, 0, 0, 0, 0, 0, 0, 0
"NODE_OH4303887", 12.47, 3,     7346.9,  119.3,    1.0205, 0, 0, 0, 0, 0, 0, 0, 0
"NODE_OCD4303857", 12.47, 3,    7347.44,  119.3,    1.0205, 0, 0, 0, 0, 0, 0, 0, 0
"NODE_UG4303858", 12.47, 3,    7347.39,  119.3,    1.0205, 0, 0, 0, 0, 0, 0, 0, 0
"NODE_OH4300591", 12.47, 1,    7419.99,   -0.1,    1.0306, 2,    7367.14, -120.1,    1.0233, 3,     7352.9,  119.4,    1.0213
"NODE_OH4300593", 12.47, 1,    7420.06,   -0.1,    1.0306, 2,    7367.09, -120.1,    1.0233, 3,    7352.77,  119.4,    1.0213
"NODE_OCD4302590", 12.47, 3,     7352.9,  119.4,    1.0213, 0, 0, 0, 0, 0, 0, 0, 0
"NODE_UG4300595", 12.47, 3,     7352.9,  119.4,    1.0213, 0, 0, 0, 0, 0, 0, 0, 0
"NODE_OH4300316", 12.47, 1,    7412.08,   -0.1,    1.0295, 2,    7392.74, -120.0,    1.0268, 3,    7383.45,  119.7,    1.0255
"NODE_OH4300322", 12.47, 1,    7412.21,   -0.1,    1.0295, 2,    7392.13, -120.0,    1.0267, 3,    7382.87,  119.7,    1.0255
"NODE_OCD4301070", 12.47, 1,    7412.08,   -0.1,    1.0295, 2,    7392.74, -120.0,    1.0268, 3,    7383.45,  119.7,    1.0255
"NODE_UG4302735", 12.47, 1,    7412.08,   -0.1,    1.0295, 2,    7392.74, -120.0,    1.0268, 3,    7383.45,  119.7,    1.0255
"NODE_OCD4307998", 12.47, 1,    7412.08,   -0.1,    1.0295, 2,    7392.74, -120.0,    1.0268, 3,    7383.45,  119.7,    1.0255
"NODE_UG4300321", 12.47, 3,    7383.45,  119.7,    1.0255, 0, 0, 0, 0, 0, 0, 0, 0
"NODE_OCD4302569", 12.47, 1,    7411.53,   -0.1,    1.0294, 2,    7395.18, -120.0,    1.0272, 3,    7385.85,  119.7,    1.0259
"NODE_UG4300297", 12.47, 1,    7411.53,   -0.1,    1.0294, 2,    7395.18, -120.0,    1.0272, 3,    7385.85,  119.7,    1.0259
"NODE_UG4300154", 12.47, 3,    7385.85,  119.7,    1.0259, 0, 0, 0, 0, 0, 0, 0, 0
"NODE_LA_MADERA", 12.47, 1,    7415.42,    0.0,      1.03, 2,    7415.55, -120.0,      1.03, 3,    7415.35,  120.0,      1.03
"NODE_UG_3_45_23_1_0001", 12.47, 1,    7415.55,    0.0,      1.03, 2,    7415.91, -120.0,    1.0301, 3,    7413.91,  120.0,    1.0298
"NODE_OCD21000101", 12.47, 1,    7381.55,   -0.5,    1.0253, 2,    7425.58, -119.8,    1.0314, 3,    7351.13,  119.7,    1.0211
"NODE_UG21000110", 12.47, 1,    7381.22,   -0.5,    1.0252, 2,    7425.85, -119.8,    1.0314, 3,    7349.87,  119.7,    1.0209
"NODE_OCD21000109", 12.47, 1,     7381.2,   -0.5,    1.0252, 2,    7425.85, -119.8,    1.0314, 3,    7349.85,  119.7,    1.0209
"NODE_UG_3_34_70_4_0001", 12.47, 1,     7381.2,   -0.5,    1.0252, 0, 0, 0, 0, 0, 0, 0, 0
"NODE_UG21000112", 12.47, 1,     7380.8,   -0.5,    1.0252, 2,    7426.18, -119.8,    1.0315, 3,    7348.29,  119.7,    1.0207
"NODE_OCD21000111", 12.47, 1,    7380.78,   -0.5,    1.0252, 2,    7426.18, -119.8,    1.0315, 3,    7348.28,  119.7,    1.0207
"NODE_UG_3_34_70_2_0001", 12.47, 3,    7348.28,  119.7,    1.0207, 0, 0, 0, 0, 0, 0, 0, 0
"NODE_UG21000113", 12.47, 1,    7380.31,   -0.6,    1.0251, 2,    7426.56, -119.8,    1.0315, 3,    7346.67,  119.7,    1.0204
"NODE_OCD21000071", 12.47, 1,    7380.29,   -0.6,    1.0251, 2,    7426.56, -119.8,    1.0315, 3,    7346.66,  119.7,    1.0204
"NODE_UG21000115", 12.47, 1,    7380.29,   -0.6,    1.0251, 2,    7426.56, -119.8,    1.0315, 3,    7346.65,  119.7,    1.0204
"NODE_OH4300162", 12.47, 1,    7377.55,   -0.6,    1.0247, 2,    7426.97, -119.8,    1.0316, 3,    7343.02,  119.7,    1.0199
"NODE_OH_3_34_60_2_0001", 12.47, 1,     7375.1,   -0.6,    1.0244, 2,    7427.34, -119.8,    1.0316, 3,    7339.77,  119.6,    1.0195
"NODE_OH4302805", 12.47, 1,    7348.91,   -0.8,    1.0207, 2,    7431.88, -119.7,    1.0323, 3,    7305.23,  119.5,    1.0147
"NODE_OH4302806", 12.47, 1,    7346.65,   -0.8,    1.0204, 2,    7432.31, -119.7,    1.0323, 3,    7302.28,  119.5,    1.0143
"NODE_OCD4303063", 12.47, 3,    7305.23,  119.5,    1.0147, 0, 0, 0, 0, 0, 0, 0, 0
"NODE_UG4303064", 12.47, 3,    7305.23,  119.5,    1.0147, 0, 0, 0, 0, 0, 0, 0, 0
"NODE_OCD4300666", 12.47, 3,    7270.63,  119.4,    1.0099, 0, 0, 0, 0, 0, 0, 0, 0
"NODE_OH4300644", 12.47, 3,    7270.23,  119.4,    1.0098, 0, 0, 0, 0, 0, 0, 0, 0
"NODE_67383", 12.47, 3,    7233.62,  119.2,    1.0047, 0, 0, 0, 0, 0, 0, 0, 0
"NODE_OH3410009", 12.47, 3,    7231.32,  119.2,    1.0044, 0, 0, 0, 0, 0, 0, 0, 0
"NODE_OH3110016", 12.47, 3,    6990.58,  118.0,   0.97097, 0, 0, 0, 0, 0, 0, 0, 0
"NODE_OH3110032", 12.47, 3,    6990.49,  118.0,   0.97096, 0, 0, 0, 0, 0, 0, 0, 0
"NODE_CP57119947", 12.47, 3,    6990.58,  118.0,   0.97097, 0, 0, 0, 0, 0, 0, 0, 0
"NODE_OH3110043", 12.47, 3,    6989.58,  118.0,   0.97083, 0, 0, 0, 0, 0, 0, 0, 0
"NODE_07537A-4", 12.47, 3,    6947.65,  117.8,   0.96501, 0, 0, 0, 0, 0, 0, 0, 0
"NODE_OH310004", 12.47, 3,    6946.88,  117.8,    0.9649, 0, 0, 0, 0, 0, 0, 0, 0
"NODE_OH3210022", 12.47, 3,    7098.03,  118.6,    0.9859, 0, 0, 0, 0, 0, 0, 0, 0
"NODE_OH3210001", 12.47, 3,    7096.76,  118.6,   0.98572, 0, 0, 0, 0, 0, 0, 0, 0
"NODE_104714", 12.47, 3,    7098.03,  118.6,    0.9859, 0, 0, 0, 0, 0, 0, 0, 0
"NODE_OH3210034", 12.47, 3,    7097.61,  118.6,   0.98584, 0, 0, 0, 0, 0, 0, 0, 0
"NODE_OH3320054", 12.47, 3,    7092.19,  118.5,   0.98509, 0, 0, 0, 0, 0, 0, 0, 0
"NODE_OH3320055", 12.47, 3,    7092.02,  118.5,   0.98506, 0, 0, 0, 0, 0, 0, 0, 0
"NODE_3320001", 12.47, 3,    7092.19,  118.5,   0.98509, 0, 0, 0, 0, 0, 0, 0, 0
"NODE_UG3320001", 12.47, 3,    7092.19,  118.5,   0.98509, 0, 0, 0, 0, 0, 0, 0, 0
"NODE_3310001", 12.47, 3,    7083.01,  118.5,   0.98381, 0, 0, 0, 0, 0, 0, 0, 0
"NODE_UG3310001", 12.47, 3,    7083.01,  118.5,   0.98381, 0, 0, 0, 0, 0, 0, 0, 0
"NODE_3320002", 12.47, 3,    7090.02,  118.5,   0.98479, 0, 0, 0, 0, 0, 0, 0, 0
"NODE_UG3320002", 12.47, 3,    7090.02,  118.5,   0.98479, 0, 0, 0, 0, 0, 0, 0, 0
"NODE_OH4300769", 12.47, 1,     7265.7,   -1.3,    1.0092, 0, 0, 0, 0, 0, 0, 0, 0
"NODE_OH4300775", 12.47, 1,     7265.7,   -1.3,    1.0092, 0, 0, 0, 0, 0, 0, 0, 0
"NODE_OH4300770", 12.47, 1,    7265.66,   -1.3,    1.0092, 0, 0, 0, 0, 0, 0, 0, 0
"NODE_069868-2", 12.47, 1,    7265.68,   -1.3,    1.0092, 0, 0, 0, 0, 0, 0, 0, 0
"NODE_OH4300776", 12.47, 1,    7262.07,   -1.3,    1.0087, 0, 0, 0, 0, 0, 0, 0, 0
"NODE_OCD4300272", 12.47, 1,    7142.91,   -1.9,   0.99213, 0, 0, 0, 0, 0, 0, 0, 0
"NODE_OH4300834", 12.47, 1,    7140.31,   -1.9,   0.99177, 0, 0, 0, 0, 0, 0, 0, 0
"NODE_OH4300848", 12.47, 1,    7095.85,   -2.2,    0.9856, 0, 0, 0, 0, 0, 0, 0, 0
"NODE_OH4300849", 12.47, 1,    7094.06,   -2.2,   0.98535, 0, 0, 0, 0, 0, 0, 0, 0
"NODE_OH4300854", 12.47, 1,    7079.75,   -2.3,   0.98336, 0, 0, 0, 0, 0, 0, 0, 0
"NODE_OH4300908", 12.47, 1,    7079.75,   -2.3,   0.98336, 0, 0, 0, 0, 0, 0, 0, 0
"NODE_OH4300857", 12.47, 1,    7079.13,   -2.3,   0.98327, 0, 0, 0, 0, 0, 0, 0, 0
"NODE_OH4300856", 12.47, 1,    7079.74,   -2.3,   0.98336, 0, 0, 0, 0, 0, 0, 0, 0
"NODE_OCD4308020", 12.47, 1,    7028.39,   -2.5,   0.97623, 0, 0, 0, 0, 0, 0, 0, 0
"NODE_UG4303077", 12.47, 1,    7028.39,   -2.5,   0.97623, 0, 0, 0, 0, 0, 0, 0, 0
"NODE_OH4302807", 12.47, 1,    7341.51,   -0.9,    1.0197, 2,    7433.31, -119.7,    1.0325, 3,    7295.72,  119.5,    1.0134
"NODE_OH4300623", 12.47, 1,    7339.11,   -0.9,    1.0194, 2,    7433.86, -119.7,    1.0325, 3,    7292.65,  119.5,    1.0129
"NODE_OH4302808", 12.47, 3,    7295.72,  119.5,    1.0134, 0, 0, 0, 0, 0, 0, 0, 0
"NODE_OCD4302745", 12.47, 1,    7341.51,   -0.9,    1.0197, 0, 0, 0, 0, 0, 0, 0, 0
"NODE_UG4302810", 12.47, 1,    7341.51,   -0.9,    1.0197, 0, 0, 0, 0, 0, 0, 0, 0
"NODE_OH4303157", 12.47, 1,    7416.36,    0.0,    1.0301, 2,    7414.82, -120.0,    1.0299, 3,    7414.26,  120.0,    1.0298
"NODE_OH4302332", 12.47, 1,    7416.59,    0.0,    1.0301, 2,    7414.57, -120.0,    1.0299, 3,    7413.28,  120.0,    1.0297
"NODE_OH4302334", 12.47, 1,    7416.85,    0.0,    1.0302, 2,    7414.28, -120.0,    1.0298, 3,    7412.22,  120.0,    1.0295
"NODE_OH4302335", 12.47, 1,     7417.1,    0.0,    1.0302, 2,    7414.02, -120.0,    1.0298, 3,    7411.21,  119.9,    1.0294
"NODE_OH4300606", 12.47, 1,    7417.53,    0.0,    1.0303, 2,    7413.54, -120.0,    1.0297, 3,    7409.44,  119.9,    1.0292
"NODE_OH4302339", 12.47, 1,    7417.88,    0.0,    1.0303, 2,    7413.16, -120.0,    1.0297, 3,    7407.97,  119.9,    1.0289
"NODE_OH4302345", 12.47, 1,    7418.25,    0.0,    1.0304, 2,    7412.75, -120.0,    1.0296, 3,    7406.43,  119.9,    1.0287
"NODE_OH4302347", 12.47, 1,     7418.7,    0.0,    1.0304, 2,    7412.25, -120.0,    1.0295, 3,    7404.59,  119.9,    1.0285
"NODE_OH4302356", 12.47, 1,    7418.95,    0.0,    1.0305, 2,       7412, -120.0,    1.0295, 3,    7403.67,  119.9,    1.0284
"NODE_OH4302362", 12.47, 1,    7419.22,    0.0,    1.0305, 2,    7411.71, -120.0,    1.0295, 3,    7402.67,  119.9,    1.0282
"NODE_OH4302358", 12.47, 1,    7418.95,    0.0,    1.0305, 2,       7412, -120.0,    1.0295, 3,    7403.67,  119.9,    1.0284
"NODE_OH4302367", 12.47, 1,    7419.68,    0.0,    1.0306, 2,    7411.23, -120.0,    1.0294, 3,    7400.97,  119.9,     1.028
"NODE_OH4302363", 12.47, 3,    7402.67,  119.9,    1.0282, 0, 0, 0, 0, 0, 0, 0, 0
...